
**** 01/10/21 14:50:15 ******* PSpice 17.4.0 (Nov 2018) ******* ID# 0 ********

 ** Profile: "SCHEMATIC1-abc"  [ C:\Users\aaa bbb\Documents\KiCadProj\SmartBattery\pSpice\Design1-PSpiceFiles\SCHEMATIC1\abc.sim ] 


 ****     CIRCUIT DESCRIPTION


******************************************************************************




** Creating circuit file "abc.cir" 
** WARNING: THIS AUTOMATICALLY GENERATED FILE MAY BE OVERWRITTEN BY SUBSEQUENT SIMULATIONS

*Libraries: 
* Profile Libraries :
* Local Libraries :
* From [PSPICE NETLIST] section of C:\SPB_Data\cdssetup\OrCAD_PSpiceTIPSpice_Install\17.4.0\PSpice.ini file:
.lib "nom_pspti.lib" 
.lib "nom.lib" 

*Analysis directives: 
.TRAN  0 30m 1m 
.OPTIONS ADVCONV
.OPTIONS THREADS= 20
.PROBE64 V(alias(*)) I(alias(*)) W(alias(*)) D(alias(*)) NOISE(alias(*)) 
.INC "..\SCHEMATIC1.net" 



**** INCLUDING SCHEMATIC1.net ****
* source DESIGN1
X_U1         N00723 N00742 N00735 N01212 0 N01219 N01257 N00881 N00888 0 N02325
+  VOUT 0 0 N01384 N01396 N02568 SW2 HDRV_2 N02564 LDRV_2 0 N02764 VBIAS LDRV_1
+  N02548 HDRV_1 SW1 0 LM5175_TRANS PARAMS: SS_1=0
V_V1         N00304 0 16Vdc
R_R1         N00304 VIN  0.3 TC=0,0 
C_C1         0 N003611  440u  TC=0,0 
C_C2         0 N003771  88u  TC=0,0 
R_R2         N00723 VIN  249k TC=0,0 
R_R3         0 N00723  29.4k TC=0,0 
R_R4         N00735 VIN  2k TC=0,0 
R_R5         N00742 N005090  10 TC=0,0 
C_C3         0 N00742  100n  TC=0,0 
C_C4         0 N00881  0.05uF  TC=0,0 
C_C6         0 N00888  120p  TC=0,0 
R_R7         0 N01212  50k TC=0,0 
R_R8         0 N01219  68.1k TC=0,0 
C_C7         0 N01257  50p  TC=0,0 
C_C8         N01384 N01396  47p  TC=0,0 
R_R9         N01396 SENSE_GND  100m TC=0,0 
R_R10         N01384 0  100m TC=0,0 
X_M1         VIN HDRV_1 SW1 POWER_NMOS_P PARAMS: BVDSS=30 IDSS=5U VGS_TH=2
+  RDSON=0.007 GFS=55 CISS=1170P COSS=180P CRSS=105P RG=1.1 VSD=0.8 QG=20N
+  V_QG=10
X_M2         SW1 LDRV_1 SENSE_GND POWER_NMOS_P PARAMS: BVDSS=30 IDSS=5U
+  VGS_TH=2 RDSON=0.007 GFS=55 CISS=1170P COSS=180P CRSS=105P RG=1.1 VSD=0.8
+  QG=20N V_QG=10
X_M3         VOUT HDRV_2 SW2 POWER_NMOS_P PARAMS: BVDSS=60 IDSS=1U VGS_TH=1.7
+  RDSON=0.0054 GFS=55 CISS=4000P COSS=800P CRSS=32P RG=1.3 VSD=0.9 QG=50N
+  V_QG=10
X_M4         SW2 LDRV_2 SENSE_GND POWER_NMOS_P PARAMS: BVDSS=60 IDSS=1U
+  VGS_TH=1.7 RDSON=0.0054 GFS=55 CISS=4000P COSS=800P CRSS=32P RG=1.3 VSD=0.9
+  QG=50N V_QG=10
L_L1         SW1 N016771  2.2u  
R_R11         SW2 N016771  15m TC=0,0 
R_R12         0 SENSE_GND  2m TC=0,0 
R_R13         N02325 VOUT  700k TC=0,0 
R_R14         0 N02325  20k TC=0,0 
R_R16         N02568 N02764  10k TC=0,0 
C_C11         SW2 N02564  0.1u  TC=0,0 
C_C12         SW1 N02548  0.1u  TC=0,0 
D_D1         N02764 N02548 power_Dbreak 
C_C14         0 VBIAS  0.1u  TC=0,0 
D_D2         N02764 N02564 power_Dbreak 
R_R17         VBIAS N02764  0.05 TC=0,0 
R_C_Input_Elec         N003611 VIN  0.2 TC=0,0 
R_C_Input_Cap         N003771 VIN  0.05 TC=0,0 
C_C13         0 N02764  1u  TC=0,0 
C_C10         0 N050881  88u  TC=0,0 
R_C_OUTPUT_CAP         N050881 VOUT  0.025 TC=0,0 
C_C9         0 N052841  880u  TC=0,0 
R_C_OUTPUT_ELEC         N052841 VOUT  0.15 TC=0,0 
R_R22         N074681 VOUT  3.5 TC=0,0 
V_V2         N10138 0  
+PULSE 0 5 10m 50u 50u 2m 6m
X_M6         N074681 N10138 0 POWER_NMOS_P PARAMS: BVDSS=60 IDSS=1U VGS_TH=1.7
+  RDSON=0.00054 GFS=55 CISS=4000P COSS=800P CRSS=32P RG=1.3 VSD=0.9 QG=50N
+  V_QG=10
D_D3         VIN N005090 power_Dbreak 
R_R6         N123041 N00888  12.7k TC=0,0 
C_C5         0 N123041  15n  TC=0,0 
R_R23         0 N01257  2Meg TC=0,0 
R_R24         0 N10138  2Meg TC=0,0 

**** RESUMING abc.cir ****
.END

**** 01/10/21 14:50:15 ******* PSpice 17.4.0 (Nov 2018) ******* ID# 0 ********

 ** Profile: "SCHEMATIC1-abc"  [ C:\Users\aaa bbb\Documents\KiCadProj\SmartBattery\pSpice\Design1-PSpiceFiles\SCHEMATIC1\abc.sim ] 


 ****     Diode MODEL PARAMETERS


******************************************************************************




               power_Dbreak    X_M1.N_MOSFET.DBT 
          IS    1.000000E-12    5.000000E-06 
           N                    2.693299     
          BV                   30            
          RS     .1                          
          TT  100.000000E-12                 
         CJO  500.000000E-15  100.000000E-15 
           M                     .35         


               X_M2.N_MOSFET.DBT 
          IS    5.000000E-06 
           N    2.693299     
          BV   30            
         CJO  100.000000E-15 
           M     .35         


               X_M3.N_MOSFET.DBT 
          IS    1.000000E-06 
           N    3.029962     
          BV   60            
         CJO  100.000000E-15 
           M     .35         


               X_M4.N_MOSFET.DBT 
          IS    1.000000E-06 
           N    3.029962     
          BV   60            
         CJO  100.000000E-15 
           M     .35         


               X_M6.N_MOSFET.DBT 
          IS    1.000000E-06 
           N    3.029962     
          BV   60            
         CJO  100.000000E-15 
           M     .35         


**** 01/10/21 14:50:15 ******* PSpice 17.4.0 (Nov 2018) ******* ID# 0 ********

 ** Profile: "SCHEMATIC1-abc"  [ C:\Users\aaa bbb\Documents\KiCadProj\SmartBattery\pSpice\Design1-PSpiceFiles\SCHEMATIC1\abc.sim ] 


 ****     MOSFET MODEL PARAMETERS


******************************************************************************




               X_M1.N_MOSFET   X_M2.N_MOSFET   X_M3.N_MOSFET   X_M4.N_MOSFET   
               NMOS            NMOS            NMOS            NMOS            
       LEVEL    1               1               1               1            
           L  100.000000E-06  100.000000E-06  100.000000E-06  100.000000E-06 
           W  100.000000E-06  100.000000E-06  100.000000E-06  100.000000E-06 
         VTO    2.5             2.5             2.2             2.2          
          KP  110             110             110             110            
       GAMMA    0               0               0               0            
         PHI     .6              .6              .6              .6          
      LAMBDA    0               0               0               0            
          IS   10.000000E-15   10.000000E-15   10.000000E-15   10.000000E-15 
          JS    0               0               0               0            
          PB     .8              .8              .8              .8          
        PBSW     .8              .8              .8              .8          
          CJ    0               0               0               0            
        CJSW    0               0               0               0            
        CGSO    0               0               0               0            
        CGDO    0               0               0               0            
        CGBO    0               0               0               0            
         TOX  100.000000E-09  100.000000E-09  100.000000E-09  100.000000E-09 
          XJ    0               0               0               0            
       UCRIT   10.000000E+03   10.000000E+03   10.000000E+03   10.000000E+03 
      DIOMOD    1               1               1               1            
         VFB    0               0               0               0            
        LETA    0               0               0               0            
        WETA    0               0               0               0            
          U0    0               0               0               0            
        TEMP    0               0               0               0            
         VDD    5               5               5               5            
       XPART    0               0               0               0            


               X_M6.N_MOSFET   
               NMOS            
       LEVEL    1            
           L  100.000000E-06 
           W  100.000000E-06 
         VTO    2.2          
          KP  110            
       GAMMA    0            
         PHI     .6          
      LAMBDA    0            
          IS   10.000000E-15 
          JS    0            
          PB     .8          
        PBSW     .8          
          CJ    0            
        CJSW    0            
        CGSO    0            
        CGDO    0            
        CGBO    0            
         TOX  100.000000E-09 
          XJ    0            
       UCRIT   10.000000E+03 
      DIOMOD    1            
         VFB    0            
        LETA    0            
        WETA    0            
          U0    0            
        TEMP    0            
         VDD    5            
       XPART    0            


**** 01/10/21 14:50:15 ******* PSpice 17.4.0 (Nov 2018) ******* ID# 0 ********

 ** Profile: "SCHEMATIC1-abc"  [ C:\Users\aaa bbb\Documents\KiCadProj\SmartBattery\pSpice\Design1-PSpiceFiles\SCHEMATIC1\abc.sim ] 


 ****     Voltage Controlled Switch MODEL PARAMETERS


******************************************************************************




               X_M1.S_GATE_CHG_SW 
         RON     .01         
        ROFF  100.000000E+06 
         VON    3.1          
        VOFF    2            


               X_M2.S_GATE_CHG_SW 
         RON     .01         
        ROFF  100.000000E+06 
         VON    3.1          
        VOFF    2            


               X_M3.S_GATE_CHG_SW 
         RON     .01         
        ROFF  100.000000E+06 
         VON    2.8          
        VOFF    1.7          


               X_M4.S_GATE_CHG_SW 
         RON     .01         
        ROFF  100.000000E+06 
         VON    2.8          
        VOFF    1.7          


               X_M6.S_GATE_CHG_SW 
         RON     .01         
        ROFF  100.000000E+06 
         VON    2.8          
        VOFF    1.7          


**** 01/10/21 14:50:15 ******* PSpice 17.4.0 (Nov 2018) ******* ID# 0 ********

 ** Profile: "SCHEMATIC1-abc"  [ C:\Users\aaa bbb\Documents\KiCadProj\SmartBattery\pSpice\Design1-PSpiceFiles\SCHEMATIC1\abc.sim ] 


 ****     INITIAL TRANSIENT SOLUTION       TEMPERATURE =   27.000 DEG C


******************************************************************************



 NODE   VOLTAGE     NODE   VOLTAGE     NODE   VOLTAGE     NODE   VOLTAGE


(  SW1) 398.9E-09  (  SW2) 927.7E-09  (  VIN)   16.0000  ( VOUT) 927.7E-09      

(VBIAS)    7.5000  (HDRV_1) 398.9E-09 (HDRV_2)    7.0505 (LDRV_1)    7.4999     

(LDRV_2) 75.00E-12 (N00304)   16.0000 (N00723)    1.8080 (N00735)   16.0000     

(N00742)   16.0000 (N00881)    1.2778 (N00888)    3.3007 (N01212)    1.0000     

(N01219)    4.9999 (N01257)   71.8560 (N01384)    0.0000 (N01396) 80.51E-09     

(N02325) 25.77E-09 (N02548)    7.3884 (N02564)    7.0505 (N02568)     .0743     

(N02764)    7.5000 (N10138)    0.0000 (X_M1.d)   16.0000 (X_M1.g) 398.9E-09     

(X_M1.s) 398.9E-09 (X_M2.d) 258.0E-09 (X_M2.g)    7.4999 (X_M2.s) 221.4E-09     

(X_M3.d) 927.7E-09 (X_M3.g)    7.0505 (X_M3.s) 927.7E-09 (X_M4.d) 927.7E-09     

(X_M4.g) 75.00E-12 (X_M4.s) 80.51E-09 (X_M6.d) 927.6E-09 (X_M6.g)    0.0000     

(X_M6.s) 347.3E-24 (N003611)   16.0000                   (N003771)   16.0000    

(N005090)   16.0000                   (N016771) 398.9E-09                       

(N050881) 927.7E-09                   (N052841) 927.7E-09                       

(N074681) 927.6E-09                   (N123041)    3.3007                       

(X_M1.ga) 398.9E-09                   (X_M1.gb) 398.9E-09                       

(X_M2.ga)    7.4999                   (X_M2.gb)    7.4999                       

(X_M3.ga)    7.0505                   (X_M3.gb)    7.0505                       

(X_M4.ga) 75.00E-12                   (X_M4.gb) 75.00E-12                       

(X_M6.ga)    0.0000                   (X_M6.gb)    0.0000                       

(X_U1.CL)    0.0000                   (X_U1.EN)    1.0000                       

(X_U1.CCM)    0.0000                  (X_U1.CLK)    0.0000                      

(X_U1.OVP)    0.0000                  (X_U1.PWM)    1.0000                      

(X_U1.SCP)    0.0000                  (X_U1.VCS) 80.51E-09                      

(SENSE_GND) 80.51E-09                 (X_U1.CLKB)    1.0000                     

(X_U1.SDWN)    0.0000                 (X_U1.TOFF)    0.0000                     

(X_U1.VFSW) 73.43E-06                 (X_U1.HS_ON)    0.0000                    

(X_U1.LS_ON)    0.0000                (X_U1.RESET)    0.0000                    

(X_U1.VSLPK)   71.8560                (X_U1.HS_OFF)    1.0000                   

(X_U1.LS_OFF)    1.0000               (X_U1.UV_OUT)    1.0000                   

(X_U1.ZCD_BB)    1.0000               (X_M1.drain_a)   16.0000                  

(X_M1.drain_b)   16.0000              (X_M2.drain_a) 398.9E-09                  

(X_M2.drain_b) 398.9E-09              (X_M3.drain_a) 927.7E-09                  

(X_M3.drain_b) 927.7E-09              (X_M4.drain_a) 927.7E-09                  

(X_M4.drain_b) 927.7E-09              (X_M6.drain_a) 927.6E-09                  

(X_M6.drain_b) 927.6E-09              (X_U1.BUCK_SS)     .8000                  

(X_U1.DCM_ENB)    0.0000              (X_U1.DRV_DIS)    0.0000                  

(X_U1.HIC_DIS)    1.0000              (X_U1.MODE_IN)    0.0000                  

(X_U1.MODE_OUT)    0.0000             (X_U1.BOOT1_SW1)    7.3884                

(X_U1.BOOT2_SW2)    7.0505            (X_U1.CLK_RESET)    0.0000                

(X_U1.N16282299)    1.0000            (X_U1.N16671835)    1.0000                

(X_U1.N16695899)    1.0000            (X_U1.N16696742)    1.0000                

(X_U1.N16703921)    1.0000            (X_U1.N16759475)    1.0000                

(X_U1.N16759612)    1.0000            (X_U1.N16776933)    0.0000                

(X_U1.N16777549)    0.0000            (X_U1.N16796502)    0.0000                

(X_U1.N16830305)    1.0000            (X_U1.N16841958)    1.0000                

(X_U1.N16842139)    1.0000            (X_U1.N16848312)    0.0000                

(X_U1.N16907082)    1.0000            (X_U1.N16907593)    1.0000                

(X_U1.COMP_GT_CL)    1.0000           (X_U1.CS_AMP_CLV)    0.0000               

(X_U1.CS_AMP_ENB)    0.0000           (X_U1.CS_AMP_SET)    1.0000               

(X_U1.DCM_HS2_BB)    1.0000           (X_U1.MODE_STATE)    1.0000               

(X_U1.CLK_RESET_B)    1.0000          (X_U1.SLOPE_RESET)    1.0000              

(X_U1.SS_COMPLETE)    1.0000          (X_U1.CS_AMP_5XVCS)-402.5E-09             

(X_U1.MIN_TIMER_IN)    1.0000         (X_U1.VCC_REG_STBY)    0.0000             

(X_U1.CS_AMP_VCL_SL)     .4000        (X_U1.CURRENT_LIMIT)    0.0000            

(X_U1.DCM_N16776763)    0.0000        (X_U1.DCM_N16776811)    1.0000            

(X_U1.DCM_N16777502)    0.0000        (X_U1.DCM_N16777504)    0.0000            

(X_U1.DCM_N16777543)    1.0000        (X_U1.DCM_N16777607)    1.0000            

(X_U1.DCM_N16777612)    1.0000        (X_U1.DCM_N16777973)    7.5000            

(X_U1.DCM_N16779675)    0.0000        (X_U1.DCM_N16779821)    1.0000            

(X_U1.DCM_N16779937)    1.0000        (X_U1.DCM_N16783519)    1.0000            

(X_U1.DCM_N16792892)    1.0000        (X_U1.DCM_N16799915)    1.0000            

(X_U1.DCM_N16802077)    1.0000        (X_U1.DCM_N16802805)    1.0000            

(X_U1.DCM_N16809464)    1.0000        (X_U1.min_timer_ENB)    0.0000            

(X_U1.MIN_TIMER_INB)    0.0000        (X_U1.min_timer_RES)    1.0000            

(X_U1.min_timer_SET)    1.0000        (X_U1.OSC_N16673143) 146.9E-09            

(X_U1.OSC_N16673175)    1.0000        (X_U1.OSC_N16673275)    0.0000            

(X_U1.OSC_N16673361)    0.0000        (X_U1.OSC_N16673513)    5.0000            

(X_U1.OSC_N16673551)    0.0000        (X_U1.OSC_N16673585)   10.0000            

(X_U1.OSC_N16738540)    5.0000        (X_U1.OSC_N16739835)    5.0000            

(X_U1.X_OSC_U136.CH)    1.0000        (X_U1.CS_AMP_OUT75NS)    0.0000           

(X_U1.VOUT_GT_VIN_1V)    0.0000       (X_U1.BUCK_BOOST_MODE)    0.0000          

(X_U1.CS_AMP_CL_LIMIT)     .8000      (X_U1.CS_AMP_N5085050)-402.5E-09          

(X_U1.CS_AMP_N5085126) 402.5E-09      (X_U1.CS_AMP_OUT100NS)    0.0000          

(X_U1.CS_AMP_OUT150NS)    0.0000      (X_U1.CS_AMP_PWM_PATH)    0.0000          

(X_U1.CS_AMP_VCOMP_SL)   73.4570      (X_U1.X_DCM_U828.YINT)    0.0000          

(X_U1.X_DCM_U830.YINT)    0.0000      (X_U1.X_OSC_U131.Yint)    0.0000          

(X_U1.X_OSC_U134.YINT)    0.0000      (X_U1.X_OSC_U135.YINT)    0.0000          

(X_U1.X_OSC_U136.MEAS)    1.0000      (X_U1.X_OSC_U137.YINT)    1.0000          

(X_U1.ZCD_BUCK_SIGNAL)    0.0000      (X_U1.CS_AMP_MODE_OUTB)    1.0000         

(X_U1.CS_AMP_N16754025)    1.6007     (X_U1.CS_AMP_N16764308)    0.0000         

(X_U1.CS_AMP_N16764328)    0.0000     (X_U1.CS_AMP_N16774427)    0.0000         

(X_U1.CS_AMP_N16779166)    0.0000     (X_U1.CS_AMP_N16791086)    0.0000         

(X_U1.CS_AMP_N16795582)    1.0000     (X_U1.CS_AMP_N16795696)    1.0000         

(X_U1.CS_AMP_N16795824)    1.0000     (X_U1.CS_AMP_N16795838)    1.0000         

(X_U1.CS_AMP_N16795996)    1.0000     (X_U1.CS_AMP_N16796221)    1.0000         

(X_U1.CS_AMP_N16796719)    1.0000     (X_U1.CS_AMP_N16807016)    4.6100         

(X_U1.CS_AMP_N16807049)     .5000     (X_U1.CS_AMP_N16807118)    4.6100         

(X_U1.CS_AMP_N16807151)     .5000     (X_U1.CS_AMP_N16817017)    0.0000         

(X_U1.CS_AMP_N16829651)    0.0000     (X_U1.CS_AMP_N16829821)    0.0000         

(X_U1.CS_AMP_N16832428)    0.0000     (X_U1.CS_AMP_N16832433)    1.0000         

(X_U1.CS_AMP_N16838708)    0.0000     (X_U1.CS_AMP_N16841607)    0.0000         

(X_U1.CS_AMP_N16841614)    0.0000     (X_U1.CS_AMP_N16841653)    0.0000         

(X_U1.CS_AMP_N16841836)    0.0000     (X_U1.CS_AMP_N16841955)    1.0000         

(X_U1.CS_AMP_N16842045)    0.0000     (X_U1.CS_AMP_N16842121)    0.0000         

(X_U1.CS_AMP_N16846627)    0.0000     (X_U1.CS_AMP_N16848137)     .0400         

(X_U1.CS_AMP_N16848292)    1.0000     (X_U1.CS_AMP_N16905880)    0.0000         

(X_U1.CS_AMP_N16905945)    1.0000     (X_U1.CS_AMP_N16906034)    0.0000         

(X_U1.CS_AMP_N16907073)    0.0000     (X_U1.CS_AMP_N16907333)    1.0000         

(X_U1.CS_AMP_N16907587)    0.0000     (X_U1.CS_AMP_N16907823)    0.0000         

(X_U1.CS_AMP_N17091330) 8.344E-30     (X_U1.CS_AMP_N17091334)    0.0000         

(X_U1.CS_AMP_N17091373)    0.0000     (X_U1.CS_AMP_N17104093)-500.7E-27         

(X_U1.CS_AMP_N17104097)    0.0000     (X_U1.CS_AMP_N17104136)    1.0000         

(X_U1.CS_AMP_N17113525) 8.316E-30     (X_U1.CS_AMP_N17113541)    0.0000         

(X_U1.CS_AMP_N17113580)    1.0000     (X_U1.CS_AMP_N17212668)    0.0000         

(X_U1.CS_AMP_N17230591)    1.0000     (X_U1.PGOOD_OVP_N00112)     .8800         

(X_U1.PGOOD_OVP_N00126)     .7200     (X_U1.X_CS_AMP_U1.Yint)    0.0000         

(X_U1.X_CS_AMP_U2.Yint)    0.0000     (X_U1.X_CS_AMP_U8.YINT)    0.0000         

(X_U1.X_CS_AMP_U9.YINT)    0.0000     (X_U1.X_DCM_U827.YINT1)    0.0000         

(X_U1.X_DCM_U827.YINT2)    0.0000     (X_U1.X_DCM_U827.YINT3)    1.0000         

(X_U1.X_DCM_U829.YINT1)    0.0000     (X_U1.X_DCM_U829.YINT2)    0.0000         

(X_U1.X_DCM_U829.YINT3)    1.0000     (X_U1.X_OSC_U132.YINT1)    1.0000         

(X_U1.X_OSC_U132.YINT2)    1.0000     (X_U1.X_OSC_U132.YINT3)    0.0000         

(X_U1.X_OSC_U133.YINT1)    0.0000     (X_U1.X_OSC_U133.YINT2)    0.0000         

(X_U1.X_OSC_U133.YINT3)    1.0000     (X_U1.X_OSC_U136.RESET)    0.0000         

(X_U1.X_PGOOD_OVP_U5.1)    0.0000     (X_U1.CS_AMP_LD2_STATUS)    1.0000        

(X_U1.CS_AMP_N167757052)    0.0000    (X_U1.CS_AMP_UVLO_BOOT1)    0.0000        

(X_U1.CS_AMP_UVLO_BOOT2)    0.0000    (X_U1.current_limit_SET)    1.0000        

(X_U1.Drivers_N16758767)    1.0000    (X_U1.Drivers_N16759768)    0.0000        

(X_U1.Drivers_N16775793)    1.0000    (X_U1.Drivers_N16787552)    1.0000        

(X_U1.Drivers_N16797448)    1.0000    (X_U1.Drivers_N16797453)    1.0000        

(X_U1.Drivers_N16797604)    1.0000    (X_U1.Drivers_N16797699)    1.0000        

(X_U1.Drivers_N16798534)    1.0000    (X_U1.Drivers_N16798559)    0.0000        

(X_U1.Drivers_N16798562)    0.0000    (X_U1.Drivers_N16798615)    1.0000        

(X_U1.Drivers_N16798623)    1.0000    (X_U1.Drivers_N16798765)    1.0000        

(X_U1.Drivers_N16799006)    1.0000    (X_U1.Drivers_N16802369)    0.0000        

(X_U1.Drivers_N16802471)    1.0000    (X_U1.Drivers_N16804514)    0.0000        

(X_U1.Drivers_N16805692)    7.5000    (X_U1.Drivers_N16807442)    2.8600        

(X_U1.Drivers_N16808380)    7.5000    (X_U1.Drivers_N16812942)    0.0000        

(X_U1.Drivers_N16816435)    2.8600    (X_U1.Drivers_N16816675)     .3200        

(X_U1.Drivers_N16816977)     .3200    (X_U1.Drivers_PRE_HDRV1)    0.0000        

(X_U1.Drivers_PRE_HDRV2)    1.0000    (X_U1.Drivers_PRE_LDRV1)    1.0000        

(X_U1.Drivers_PRE_LDRV2)    0.0000    (X_U1.UVLO_BT1_DETECTED)    0.0000        

(X_U1.VCC_REG_N16764625)   16.0000    (X_U1.VCC_REG_N16764709)    3.3000        

(X_U1.VCC_REG_N16764761)    3.3000    (X_U1.VCC_REG_N16764767)    0.0000        

(X_U1.VCC_REG_N16764827)    1.0000    (X_U1.VCC_REG_N16764877)     .7000        

(X_U1.VCC_REG_N16765003)    1.2200    (X_U1.VCC_REG_N16765009)    1.0000        

(X_U1.VCC_REG_N16765121)    1.0000    (X_U1.VCC_REG_N16765253)    8.0000        

(X_U1.VCC_REG_N16765297)    0.0000    (X_U1.VCC_REG_N16765307)    1.0000        

(X_U1.X_CS_AMP_U643.MY5)    5.0000    (X_U1.X_CS_AMP_U643.Qbr)    1.0000        

(X_U1.X_CS_AMP_U643.Qqq) 10.00E-15    (X_U1.X_CS_AMP_U679.MY5)    1.0000        

(X_U1.X_CS_AMP_U679.Qbr)    1.0000    (X_U1.X_CS_AMP_U679.Qqq) 2.002E-15        

(X_U1.X_CS_AMP_U717.MY5)    1.0000    (X_U1.X_CS_AMP_U717.Qbr)    1.0000        

(X_U1.X_CS_AMP_U717.Qqq)    -.0100    (X_U1.X_CS_AMP_U731.MY5)    1.0000        

(X_U1.X_CS_AMP_U731.Qbr)    1.0000    (X_U1.X_CS_AMP_U731.Qqq)     .0100        

(X_U1.X_OSC_U136.RESET2)    0.0000    (X_U1.X_VCC_REG_U6.YINT)    0.0000        

(X_U1.CS_AMP_UVLOB_BOOT1)    1.0000   (X_U1.CS_AMP_UVLOB_BOOT2)    1.0000       

(X_U1.current_limit_SHDN)    0.0000   (X_U1.Drivers_UVLO_BOOT1)    0.0000       

(X_U1.Drivers_UVLO_BOOT2)    0.0000   (X_U1.PGOOD_OVP_NO_PGOOD)    1.0000       

(X_U1.PWM_COMPARATOR_OUT)    1.0000   (X_U1.X_CS_AMP_U643.Qint) 10.00E-15       

(X_U1.X_CS_AMP_U670.YINT)    0.0000   (X_U1.X_CS_AMP_U672.YINT)    0.0000       

(X_U1.X_CS_AMP_U674.YINT)    1.0000   (X_U1.X_CS_AMP_U679.Qint) 2.002E-15       

(X_U1.X_CS_AMP_U681.YINT)    1.0000   (X_U1.X_CS_AMP_U682.YINT)    0.0000       

(X_U1.X_CS_AMP_U685.YINT)    1.0000   (X_U1.X_CS_AMP_U686.YINT)    1.0000       

(X_U1.X_CS_AMP_U687.YINT)    1.0000   (X_U1.X_CS_AMP_U688.YINT)    1.0000       

(X_U1.X_CS_AMP_U691.YINT)    1.0000   (X_U1.X_CS_AMP_U694.YINT)    0.0000       

(X_U1.X_CS_AMP_U695.YINT)    1.0000   (X_U1.X_CS_AMP_U698.YINT)    0.0000       

(X_U1.X_CS_AMP_U702.YINT)    0.0000   (X_U1.X_CS_AMP_U703.YINT)    0.0000       

(X_U1.X_CS_AMP_U704.YINT)    0.0000   (X_U1.X_CS_AMP_U706.YINT)    0.0000       

(X_U1.X_CS_AMP_U709.YINT)    0.0000   (X_U1.X_CS_AMP_U713.YINT)    0.0000       

(X_U1.X_CS_AMP_U714.YINT)    0.0000   (X_U1.X_CS_AMP_U715.YINT)    0.0000       

(X_U1.X_CS_AMP_U717.Qint)    -.0100   (X_U1.X_CS_AMP_U718.YINT)    1.0000       

(X_U1.X_CS_AMP_U719.YINT)    1.0000   (X_U1.X_CS_AMP_U721.YINT)    0.0000       

(X_U1.X_CS_AMP_U722.YINT)    0.0000   (X_U1.X_CS_AMP_U724.YINT)    0.0000       

(X_U1.X_CS_AMP_U726.YINT)    1.0000   (X_U1.X_CS_AMP_U727.YINT)    1.0000       

(X_U1.X_CS_AMP_U728.Yint)    0.0000   (X_U1.X_CS_AMP_U730.YINT)    0.0000       

(X_U1.X_CS_AMP_U731.Qint)     .0100   (X_U1.X_CS_AMP_U732.YINT)    1.0000       

(X_U1.X_CS_AMP_U733.YINT)    0.0000   (X_U1.X_CS_AMP_U734.YINT)    1.0000       

(X_U1.X_CS_AMP_U735.YINT)    1.0000   (X_U1.X_CS_AMP_U736.YINT)    0.0000       

(X_U1.X_CS_AMP_U738.YINT)    1.0000   (X_U1.X_CS_AMP_U739.YINT)    1.0000       

(X_U1.X_CS_AMP_U823.YINT)    0.0000   (X_U1.X_CS_AMP_U825.YINT)    0.0000       

(X_U1.X_CS_AMP_U830.YINT)    0.0000   (X_U1.current_limit_COUNT)    0.0000      

(X_U1.DCM_ZEROCROSS_BOOST)    0.0000  (X_U1.Drivers_UVLOB_BOOT1)    1.0000      

(X_U1.Drivers_UVLOB_BOOT2)    1.0000  (X_U1.min_timer_N16666348)    0.0000      

(X_U1.min_timer_N16671724)    0.0000  (X_U1.min_timer_N16671739)    0.0000      

(X_U1.min_timer_N16671780)    0.0000  (X_U1.min_timer_N16696309)    0.0000      

(X_U1.min_timer_N16696802)    1.0000  (X_U1.min_timer_N16741309)    1.0000      

(X_U1.min_timer_N16741475)    1.0000  (X_U1.min_timer_N16744010)    1.0000      

(X_U1.min_timer_N16808035)    0.0000  (X_U1.min_timer_N16808041)-15.82E-21      

(X_U1.min_timer_N16808082)    1.0000  (X_U1.min_timer_N16820676)    1.0000      

(X_U1.PGOOD_OVP_N16769754)    0.0000  (X_U1.PGOOD_OVP_N16769766)    1.0000      

(X_U1.PGOOD_OVP_N16769927)     .8600  (X_U1.PGOOD_OVP_N16770999)     .0200      

(X_U1.PWM_COMPARATOR_OUTB)    0.0000  (X_U1.X_CS_AMP_U643.Qqqd1)    0.0000      

(X_U1.X_CS_AMP_U679.MYVSS)    0.0000  (X_U1.X_CS_AMP_U679.Qqqd1)    0.0000      

(X_U1.X_CS_AMP_U696.YINT1)    1.0000  (X_U1.X_CS_AMP_U696.YINT2)    1.0000      

(X_U1.X_CS_AMP_U696.YINT3)    1.0000  (X_U1.X_CS_AMP_U697.YINT1)    1.0000      

(X_U1.X_CS_AMP_U697.YINT2)    1.0000  (X_U1.X_CS_AMP_U697.YINT3)    1.0000      

(X_U1.X_CS_AMP_U717.MYVSS)    0.0000  (X_U1.X_CS_AMP_U717.Qqqd1)    0.0000      

(X_U1.X_CS_AMP_U731.MYVSS)    0.0000  (X_U1.X_CS_AMP_U731.Qqqd1)    0.0000      

(X_U1.X_CS_AMP_U822.YINT1)    1.0000  (X_U1.X_CS_AMP_U822.YINT2)    1.0000      

(X_U1.X_CS_AMP_U822.YINT3)    0.0000  (X_U1.X_CS_AMP_U824.YINT1)    0.0000      

(X_U1.X_CS_AMP_U824.YINT2)    0.0000  (X_U1.X_CS_AMP_U824.YINT3)    1.0000      

(X_U1.X_CS_AMP_U829.YINT1)    0.0000  (X_U1.X_CS_AMP_U829.YINT2)    0.0000      

(X_U1.X_CS_AMP_U829.YINT3)    1.0000  (X_U1.X_min_timer_U7.YINT)    0.0000      

(X_U1.X_PGOOD_OVP_U1.Yint)    0.0000  (X_U1.X_PGOOD_OVP_U2.Yint)    1.0000      

(X_U1.X_PGOOD_OVP_U3.YINT)    1.0000  (X_U1.X_PGOOD_OVP_U5.INM1)     .8600      

(X_U1.X_PGOOD_OVP_U5.INP1)    0.0000  (X_U1.X_PGOOD_OVP_U5.INP2)    0.0000      

(X_U1.X_VCC_REG_U604.YINT)    1.0000  (X_U1.X_VCC_REG_U605.Yint)    0.0000      

(X_U1.X_VCC_REG_U606.Yint)    1.0000  (X_U1.X_VCC_REG_U607.YINT)    1.0000      

(X_U1.X_VCC_REG_U608.YINT)    1.0000  (X_U1.X_VCC_REG_U611.YINT)   16.0000      

(X_U1.X_VCC_REG_U612.Yint)    0.0000  (X_U1.X_VCC_REG_U613.Yint)    0.0000      

(X_U1.min_timer_INPUT1P2US)    0.0000 (X_U1.Sample_Hold_N4181858)   71.8560     

(X_U1.Slope_Comp_N16719883)  -16.0000 (X_U1.Slope_Comp_N16719957)   16.0000     

(X_U1.Slope_Comp_N16720003)    3.3000 (X_U1.Slope_Comp_N16720101)   16.0000     

(X_U1.Slope_Comp_N16766844)    1.0000 (X_U1.Slope_Comp_N16783181)    1.0000     

(X_U1.X_CS_AMP_U643.CLKdel)    0.0000 (X_U1.X_CS_AMP_U643.CLKint)    0.0000     

(X_U1.X_min_timer_U643.MY5)    5.0000 (X_U1.X_min_timer_U643.Qbr)    1.0000     

(X_U1.X_min_timer_U643.Qqq) 10.00E-15 (X_U1.X_min_timer_U650.MY5)    5.0000     

(X_U1.X_min_timer_U650.Qbr)    1.0000 (X_U1.X_min_timer_U650.Qqq)    -.0100     

(X_U1.X_min_timer_U656.MY5)    5.0000 (X_U1.X_min_timer_U656.Qbr)    1.0000     

(X_U1.X_min_timer_U656.Qqq) 10.00E-15 (X_U1.X_min_timer_U660.MY5)    5.0000     

(X_U1.X_min_timer_U660.Qbr)    1.0000 (X_U1.X_min_timer_U660.Qqq) 10.00E-15     

(X_U1.X_min_timer_U829.my5)    1.0000 (X_U1.X_min_timer_U829.qbr)    1.0000     

(X_U1.X_min_timer_U829.qqq)    -.0096 (X_U1.CS_AMP_CURRENT_LIMITB)    1.0000    

(X_U1.CS_AMP_PWM_RESET_MASK)    1.0000                                          

(X_U1.min_timer_OUTPUT1P2US)    1.0000                                          

(X_U1.Sample_Hold_N16739384)   71.8560                                          

(X_U1.Sample_Hold_N16745210)   71.8560                                          

(X_U1.Sample_Hold_N16771557)    0.0000                                          

(X_U1.X_CS_AMP_U643.X2.YINT)    0.0000                                          

(X_U1.X_CS_AMP_U679.X3.YINT)    0.0000                                          

(X_U1.X_CS_AMP_U717.X3.YINT)    0.0000                                          

(X_U1.X_CS_AMP_U731.X3.YINT)    0.0000                                          

(X_U1.X_DCM_U1912603689.MY5)    1.0000                                          

(X_U1.X_DCM_U1912603689.Qbr)    1.0000                                          

(X_U1.X_DCM_U1912603689.Qqq) 2.002E-15                                          

(X_U1.X_DCM_U1912603696.MY5)    1.0000                                          

(X_U1.X_DCM_U1912603696.Qbr)    1.0000                                          

(X_U1.X_DCM_U1912603696.Qqq)     .0100                                          

(X_U1.X_min_timer_U643.Qint) 10.00E-15                                          

(X_U1.X_min_timer_U645.YINT)    0.0000                                          

(X_U1.X_min_timer_U650.Qint)    -.0100                                          

(X_U1.X_min_timer_U651.YINT)    1.0000                                          

(X_U1.X_min_timer_U655.YINT)    0.0000                                          

(X_U1.X_min_timer_U656.Qint) 10.00E-15                                          

(X_U1.X_min_timer_U660.Qint) 10.00E-15                                          

(X_U1.X_min_timer_U661.YINT)    0.0000                                          

(X_U1.X_min_timer_U689.YINT)    1.0000                                          

(X_U1.X_min_timer_U690.YINT)    1.0000                                          

(X_U1.X_min_timer_U691.YINT)    1.0000                                          

(X_U1.X_min_timer_U692.YINT)    0.0000                                          

(X_U1.X_min_timer_U693.YINT)    1.0000                                          

(X_U1.X_min_timer_U696.YINT)    0.0000                                          

(X_U1.X_min_timer_U823.YINT)    0.0000                                          

(X_U1.X_min_timer_U826.YINT)    1.0000                                          

(X_U1.X_min_timer_U828.YINT)    0.0000                                          

(X_U1.X_min_timer_U829.qint)    -.0096                                          

(X_U1.EA_SS_CCLOOP_N16151810)    1.2200                                         

(X_U1.EA_SS_CCLOOP_N16151836)     .8000                                         

(X_U1.EA_SS_CCLOOP_N16737187)    3.3000                                         

(X_U1.EA_SS_CCLOOP_N16738178)    0.0000                                         

(X_U1.EA_SS_CCLOOP_N16783515)    0.0000                                         

(X_U1.EA_SS_CCLOOP_N16783983)    0.0000                                         

(X_U1.min_timer_LDRVXGT1P2US)    0.0000                                         

(X_U1.X_CS_AMP_U1912603705.1)    1.0000                                         

(X_U1.X_CS_AMP_U1912603707.1)    1.0000                                         

(X_U1.X_CS_AMP_U643.X1.YINT1)    1.0000                                         

(X_U1.X_CS_AMP_U643.X1.YINT2)    1.0000                                         

(X_U1.X_CS_AMP_U643.X1.YINT3)    0.0000                                         

(X_U1.X_CS_AMP_U643.X3.YINT1)    0.0000                                         

(X_U1.X_CS_AMP_U643.X3.YINT2)    0.0000                                         

(X_U1.X_CS_AMP_U643.X3.YINT3)    0.0000                                         

(X_U1.X_DCM_U1912603662.YINT)    0.0000                                         

(X_U1.X_DCM_U1912603666.YINT)    0.0000                                         

(X_U1.X_DCM_U1912603669.YINT)    1.0000                                         

(X_U1.X_DCM_U1912603671.YINT)    1.0000                                         

(X_U1.X_DCM_U1912603675.YINT)    1.0000                                         

(X_U1.X_DCM_U1912603679.YINT)    0.0000                                         

(X_U1.X_DCM_U1912603680.YINT)    1.0000                                         

(X_U1.X_DCM_U1912603684.YINT)    1.0000                                         

(X_U1.X_DCM_U1912603687.YINT)    1.0000                                         

(X_U1.X_DCM_U1912603689.Qint) 2.002E-15                                         

(X_U1.X_DCM_U1912603692.YINT)    1.0000                                         

(X_U1.X_DCM_U1912603693.YINT)    1.0000                                         

(X_U1.X_DCM_U1912603695.YINT)    0.0000                                         

(X_U1.X_DCM_U1912603696.Qint)     .0100                                         

(X_U1.X_DCM_U1912603697.YINT)    1.0000                                         

(X_U1.X_DCM_U1912603701.YINT)    1.0000                                         

(X_U1.X_DCM_U1912603702.YINT)    1.0000                                         

(X_U1.X_EA_SS_CCLOOP_U2.YINT)    0.0000                                         

(X_U1.X_EA_SS_CCLOOP_U3.YINT)    0.0000                                         

(X_U1.X_min_timer_U643.Qqqd1)    0.0000                                         

(X_U1.X_min_timer_U650.Qqqd1)    0.0000                                         

(X_U1.X_min_timer_U656.Qqqd1)    0.0000                                         

(X_U1.X_min_timer_U660.Qqqd1)    0.0000                                         

(X_U1.X_min_timer_U685.YINT1)    0.0000                                         

(X_U1.X_min_timer_U685.YINT2)    0.0000                                         

(X_U1.X_min_timer_U685.YINT3)    0.0000                                         

(X_U1.X_min_timer_U822.YINT1)    0.0000                                         

(X_U1.X_min_timer_U822.YINT2)    0.0000                                         

(X_U1.X_min_timer_U822.YINT3)    1.0000                                         

(X_U1.X_min_timer_U827.YINT1)    0.0000                                         

(X_U1.X_min_timer_U827.YINT2)    0.0000                                         

(X_U1.X_min_timer_U827.YINT3)    1.0000                                         

(X_U1.X_min_timer_U829.myvss)    0.0000                                         

(X_U1.X_min_timer_U829.qqqd1)    0.0000                                         

(X_U1.X_min_timer_U834.YINT1)    0.0000                                         

(X_U1.X_min_timer_U834.YINT2)    0.0000                                         

(X_U1.X_min_timer_U834.YINT3)    0.0000                                         

(X_U1.X_Slope_Comp_U690.YINT)    1.0000                                         

(X_U1.X_Slope_Comp_U701.YINT)    1.0000                                         

(X_U1.current_limit_N16759077)    1.0000                                        

(X_U1.current_limit_N16759254)    0.0000                                        

(X_U1.current_limit_N16759334)    1.0000                                        

(X_U1.current_limit_N16759346)    0.0000                                        

(X_U1.current_limit_N16759449)    0.0000                                        

(X_U1.current_limit_N16759550)    0.0000                                        

(X_U1.current_limit_N16759828)    1.0000                                        

(X_U1.current_limit_N16760473)    1.0000                                        

(X_U1.current_limit_N16760479)    0.0000                                        

(X_U1.current_limit_N16760513)    0.0000                                        

(X_U1.current_limit_N16764480)    0.0000                                        

(X_U1.current_limit_N16764798)    0.0000                                        

(X_U1.current_limit_N16779506)    0.0000                                        

(X_U1.min_timer_PULSE_BB_TRAN)    0.0000                                        

(X_U1.X_current_limit_U2.YINT)    1.0000                                        

(X_U1.X_current_limit_U3.YINT)    1.0000                                        

(X_U1.X_current_limit_U4.YINT)    1.0000                                        

(X_U1.X_current_limit_U6.YINT)    0.0000                                        

(X_U1.X_DCM_U1912603689.MYVSS)    0.0000                                        

(X_U1.X_DCM_U1912603689.Qqqd1)    0.0000                                        

(X_U1.X_DCM_U1912603696.MYVSS)    0.0000                                        

(X_U1.X_DCM_U1912603696.Qqqd1)    0.0000                                        

(X_U1.X_Drivers_U1912603705.1)    1.0000                                        

(X_U1.X_Drivers_U1912603707.1)    1.0000                                        

(X_U1.X_min_timer_U643.CLKdel)    1.0000                                        

(X_U1.X_min_timer_U643.CLKint)    0.0000                                        

(X_U1.X_min_timer_U650.CLKdel)    1.0000                                        

(X_U1.X_min_timer_U650.CLKint)    0.0000                                        

(X_U1.X_min_timer_U656.CLKdel)    1.0000                                        

(X_U1.X_min_timer_U656.CLKint)    0.0000                                        

(X_U1.X_min_timer_U660.CLKdel)    1.0000                                        

(X_U1.X_min_timer_U660.CLKint)    0.0000                                        

(X_U1.X_Slope_Comp_U702.YINT1)    1.0000                                        

(X_U1.X_Slope_Comp_U702.YINT2)    1.0000                                        

(X_U1.X_Slope_Comp_U702.YINT3)    1.0000                                        

(X_U1.CS_AMP_NEG_CURRENT_LIMIT)    0.0000                                       

(X_U1.CS_AMP_UVLO_BT2_DETECTED)    0.0000                                       

(X_U1.current_limit_128_CYCLES)    0.0000                                       

(X_U1.min_timer_LDRVXLTBB_TRAN)    0.0000                                       

(X_U1.min_timer_PULSELTBB_TRAN)    0.0000                                       

(X_U1.min_timer_PULSE_GT_1P2US)    0.0000                                       

(X_U1.X_CS_AMP_U1912603712.MY5)    5.0000                                       

(X_U1.X_CS_AMP_U1912603712.Qbr)    1.0000                                       

(X_U1.X_CS_AMP_U1912603712.Qqq) 10.00E-15                                       

(X_U1.X_CS_AMP_U1912603719.MY5)    5.0000                                       

(X_U1.X_CS_AMP_U1912603719.Qbr)    1.0000                                       

(X_U1.X_CS_AMP_U1912603719.Qqq) 10.00E-15                                       

(X_U1.X_current_limit_U643.MY5)    5.0000                                       

(X_U1.X_current_limit_U643.Qbr)    1.0000                                       

(X_U1.X_current_limit_U643.Qqq) 10.00E-15                                       

(X_U1.X_current_limit_U652.MY5)    1.0000                                       

(X_U1.X_current_limit_U652.Qbr)    1.0000                                       

(X_U1.X_current_limit_U652.Qqq)     .0100                                       

(X_U1.X_min_timer_U643.X2.YINT)    0.0000                                       

(X_U1.X_min_timer_U650.X2.YINT)    0.0000                                       

(X_U1.X_min_timer_U656.X2.YINT)    0.0000                                       

(X_U1.X_min_timer_U660.X2.YINT)    0.0000                                       

(X_U1.X_min_timer_U829.x3.YINT)    0.0000                                       

(X_U1.current_limit_3968_CYCLES)    0.0000                                      

(X_U1.min_timer_CLK_RESET_PULSE)    0.0000                                      

(X_U1.X_CS_AMP_U1912603705.INM1)   -2.7784                                      

(X_U1.X_CS_AMP_U1912603705.INP1)    0.0000                                      

(X_U1.X_CS_AMP_U1912603705.INP2)     .5000                                      

(X_U1.X_CS_AMP_U1912603706.YINT)    0.0000                                      

(X_U1.X_CS_AMP_U1912603707.INM1)   -2.4405                                      

(X_U1.X_CS_AMP_U1912603707.INP1)    0.0000                                      

(X_U1.X_CS_AMP_U1912603707.INP2)     .5000                                      

(X_U1.X_CS_AMP_U1912603708.YINT)    0.0000                                      

(X_U1.X_CS_AMP_U1912603712.Qint) 10.00E-15                                      

(X_U1.X_CS_AMP_U1912603713.YINT)    0.0000                                      

(X_U1.X_CS_AMP_U1912603714.YINT)    0.0000                                      

(X_U1.X_CS_AMP_U1912603719.Qint) 10.00E-15                                      

(X_U1.X_CS_AMP_U1912603723.YINT)    0.0000                                      

(X_U1.X_CS_AMP_U1912603724.YINT)    1.0000                                      

(X_U1.X_CS_AMP_U1912603725.YINT)    0.0000                                      

(X_U1.X_CS_AMP_U1912603726.YINT)    1.0000                                      

(X_U1.X_CS_AMP_U1912603727.YINT)    0.0000                                      

(X_U1.X_CS_AMP_U1912603728.YINT)    0.0000                                      

(X_U1.X_CS_AMP_U1912603730.YINT)    1.0000                                      

(X_U1.X_CS_AMP_U1912603731.YINT)    0.0000                                      

(X_U1.X_current_limit_U643.Qint) 10.00E-15                                      

(X_U1.X_current_limit_U644.YINT)    1.0000                                      

(X_U1.X_current_limit_U645.YINT)    0.0000                                      

(X_U1.X_current_limit_U648.YINT)    0.0000                                      

(X_U1.X_current_limit_U649.YINT)    0.0000                                      

(X_U1.X_current_limit_U650.YINT)    1.0000                                      

(X_U1.X_current_limit_U651.YINT)    0.0000                                      

(X_U1.X_current_limit_U652.Qint)     .0100                                      

(X_U1.X_current_limit_U656.YINT)    0.0000                                      

(X_U1.X_current_limit_U658.YINT)    0.0000                                      

(X_U1.X_current_limit_U659.YINT)    0.0000                                      

(X_U1.X_current_limit_U828.YINT)    0.0000                                      

(X_U1.X_DCM_U1912603689.X3.YINT)    0.0000                                      

(X_U1.X_DCM_U1912603696.X3.YINT)    0.0000                                      

(X_U1.X_min_timer_U643.X1.YINT1)    0.0000                                      

(X_U1.X_min_timer_U643.X1.YINT2)    0.0000                                      

(X_U1.X_min_timer_U643.X1.YINT3)    1.0000                                      

(X_U1.X_min_timer_U643.X3.YINT1)    0.0000                                      

(X_U1.X_min_timer_U643.X3.YINT2)    0.0000                                      

(X_U1.X_min_timer_U643.X3.YINT3)    0.0000                                      

(X_U1.X_min_timer_U650.X1.YINT1)    0.0000                                      

(X_U1.X_min_timer_U650.X1.YINT2)    0.0000                                      

(X_U1.X_min_timer_U650.X1.YINT3)    1.0000                                      

(X_U1.X_min_timer_U650.X3.YINT1)    0.0000                                      

(X_U1.X_min_timer_U650.X3.YINT2)    0.0000                                      

(X_U1.X_min_timer_U650.X3.YINT3)    0.0000                                      

(X_U1.X_min_timer_U656.X1.YINT1)    0.0000                                      

(X_U1.X_min_timer_U656.X1.YINT2)    0.0000                                      

(X_U1.X_min_timer_U656.X1.YINT3)    1.0000                                      

(X_U1.X_min_timer_U656.X3.YINT1)    0.0000                                      

(X_U1.X_min_timer_U656.X3.YINT2)    0.0000                                      

(X_U1.X_min_timer_U656.X3.YINT3)    0.0000                                      

(X_U1.X_min_timer_U660.X1.YINT1)    0.0000                                      

(X_U1.X_min_timer_U660.X1.YINT2)    0.0000                                      

(X_U1.X_min_timer_U660.X1.YINT3)    1.0000                                      

(X_U1.X_min_timer_U660.X3.YINT1)    0.0000                                      

(X_U1.X_min_timer_U660.X3.YINT2)    0.0000                                      

(X_U1.X_min_timer_U660.X3.YINT3)    0.0000                                      

(X_U1.CS_AMP_LD1_STATUSB_OR_ZCDB)    1.0000                                     

(X_U1.min_timer_min_on_N16772126)    0.0000                                     

(X_U1.min_timer_min_on_N16772328)    1.0000                                     

(X_U1.X_CS_AMP_U1912603712.Qqqd1)    0.0000                                     

(X_U1.X_CS_AMP_U1912603719.Qqqd1)    0.0000                                     

(X_U1.X_current_limit_U643.Qqqd1)    0.0000                                     

(X_U1.X_current_limit_U652.MYVSS)    0.0000                                     

(X_U1.X_current_limit_U652.Qqqd1)    0.0000                                     

(X_U1.X_current_limit_U827.YINT1)    1.0000                                     

(X_U1.X_current_limit_U827.YINT2)    1.0000                                     

(X_U1.X_current_limit_U827.YINT3)    0.0000                                     

(X_U1.X_Drivers_U1912603652.YINT)    1.0000                                     

(X_U1.X_Drivers_U1912603654.YINT)    0.0000                                     

(X_U1.X_Drivers_U1912603659.YINT)    1.0000                                     

(X_U1.X_Drivers_U1912603660.YINT)    1.0000                                     

(X_U1.X_Drivers_U1912603661.YINT)    1.0000                                     

(X_U1.X_Drivers_U1912603662.YINT)    0.0000                                     

(X_U1.X_Drivers_U1912603663.YINT)    1.0000                                     

(X_U1.X_Drivers_U1912603665.YINT)    1.0000                                     

(X_U1.X_Drivers_U1912603667.YINT)    0.0000                                     

(X_U1.X_Drivers_U1912603669.YINT)    1.0000                                     

(X_U1.X_Drivers_U1912603670.YINT)    1.0000                                     

(X_U1.X_Drivers_U1912603672.YINT)    0.0000                                     

(X_U1.X_Drivers_U1912603674.YINT)    1.0000                                     

(X_U1.X_Drivers_U1912603675.YINT)    1.0000                                     

(X_U1.X_Drivers_U1912603677.YINT)    1.0000                                     

(X_U1.X_Drivers_U1912603705.INM1)   -4.5284                                     

(X_U1.X_Drivers_U1912603705.INP1)    0.0000                                     

(X_U1.X_Drivers_U1912603705.INP2)     .3200                                     

(X_U1.X_Drivers_U1912603706.YINT)    0.0000                                     

(X_U1.X_Drivers_U1912603707.INM1)   -4.1905                                     

(X_U1.X_Drivers_U1912603707.INP1)    0.0000                                     

(X_U1.X_Drivers_U1912603707.INP2)     .3200                                     

(X_U1.X_Drivers_U1912603708.YINT)    0.0000                                     

(X_U1.X_Drivers_U1912603709.YINT)    0.0000                                     

(X_U1.X_Drivers_U1912603713.YINT)    1.0000                                     

(X_U1.CS_AMP_EN_UVLO_REFRESH_BUCK)    1.0000                                    

(X_U1.current_limit_ILIMIT_DETECT)    1.0000                                    

(X_U1.min_timer_min_on_INDELAYED1)-24.83E-30                                    

(X_U1.X_CS_AMP_U1912603712.CLKdel)    1.0000                                    

(X_U1.X_CS_AMP_U1912603712.CLKint)    0.0000                                    

(X_U1.X_CS_AMP_U1912603719.CLKdel)    1.0000                                    

(X_U1.X_CS_AMP_U1912603719.CLKint)    0.0000                                    

(X_U1.X_current_limit_U643.CLKdel)    1.0000                                    

(X_U1.X_current_limit_U643.CLKint)    0.0000                                    

(X_U1.X_Drivers_U1912603678.YINT1)    0.0000                                    

(X_U1.X_Drivers_U1912603678.YINT2)    0.0000                                    

(X_U1.X_Drivers_U1912603678.YINT3)    1.0000                                    

(X_U1.X_Drivers_U1912603679.YINT1)    1.0000                                    

(X_U1.X_Drivers_U1912603679.YINT2)    1.0000                                    

(X_U1.X_Drivers_U1912603679.YINT3)    0.0000                                    

(X_U1.X_Drivers_U1912603680.YINT1)    0.0000                                    

(X_U1.X_Drivers_U1912603680.YINT2)    0.0000                                    

(X_U1.X_Drivers_U1912603680.YINT3)    1.0000                                    

(X_U1.X_Drivers_U1912603681.YINT1)    1.0000                                    

(X_U1.X_Drivers_U1912603681.YINT2)    1.0000                                    

(X_U1.X_Drivers_U1912603681.YINT3)    0.0000                                    

(X_U1.X_min_timer_U1912603729.MY5)    5.0000                                    

(X_U1.X_min_timer_U1912603729.Qbr)    1.0000                                    

(X_U1.X_min_timer_U1912603729.Qqq) 10.00E-15                                    

(X_U1.CS_AMP_EN_UVLO_REFRESH_BOOST)    1.0000                                   

(X_U1.X_CS_AMP_U1912603712.X2.YINT)    0.0000                                   

(X_U1.X_CS_AMP_U1912603719.X2.YINT)    0.0000                                   

(X_U1.X_current_limit_U643.X2.YINT)    0.0000                                   

(X_U1.X_current_limit_U652.X3.YINT)    0.0000                                   

(X_U1.X_min_timer_min_on_U823.YINT)    0.0000                                   

(X_U1.X_min_timer_min_on_U825.YINT)    0.0000                                   

(X_U1.X_min_timer_U1912603729.Qint) 10.00E-15                                   

(X_U1.X_CS_AMP_U1912603712.X1.YINT1)    0.0000                                  

(X_U1.X_CS_AMP_U1912603712.X1.YINT2)    0.0000                                  

(X_U1.X_CS_AMP_U1912603712.X1.YINT3)    1.0000                                  

(X_U1.X_CS_AMP_U1912603712.X3.YINT1)    0.0000                                  

(X_U1.X_CS_AMP_U1912603712.X3.YINT2)    0.0000                                  

(X_U1.X_CS_AMP_U1912603712.X3.YINT3)    0.0000                                  

(X_U1.X_CS_AMP_U1912603719.X1.YINT1)    0.0000                                  

(X_U1.X_CS_AMP_U1912603719.X1.YINT2)    0.0000                                  

(X_U1.X_CS_AMP_U1912603719.X1.YINT3)    1.0000                                  

(X_U1.X_CS_AMP_U1912603719.X3.YINT1)    0.0000                                  

(X_U1.X_CS_AMP_U1912603719.X3.YINT2)    0.0000                                  

(X_U1.X_CS_AMP_U1912603719.X3.YINT3)    0.0000                                  

(X_U1.X_current_limit_U643.X1.YINT1)    0.0000                                  

(X_U1.X_current_limit_U643.X1.YINT2)    0.0000                                  

(X_U1.X_current_limit_U643.X1.YINT3)    1.0000                                  

(X_U1.X_current_limit_U643.X3.YINT1)    0.0000                                  

(X_U1.X_current_limit_U643.X3.YINT2)    0.0000                                  

(X_U1.X_current_limit_U643.X3.YINT3)    0.0000                                  

(X_U1.X_min_timer_min_on_U822.YINT1)    0.0000                                  

(X_U1.X_min_timer_min_on_U822.YINT2)    0.0000                                  

(X_U1.X_min_timer_min_on_U822.YINT3)    1.0000                                  

(X_U1.X_min_timer_U1912603729.Qqqd1)    0.0000                                  

(X_U1.X_min_timer_U1912603729.CLKdel)    1.0000                                 

(X_U1.X_min_timer_U1912603729.CLKint)    0.0000                                 

(X_U1.X_min_timer_U1912603729.X2.YINT)    0.0000                                

(X_U1.X_min_timer_U1912603729.X1.YINT1)    0.0000                               

(X_U1.X_min_timer_U1912603729.X1.YINT2)    0.0000                               

(X_U1.X_min_timer_U1912603729.X1.YINT3)    1.0000                               

(X_U1.X_min_timer_U1912603729.X3.YINT1)    0.0000                               

(X_U1.X_min_timer_U1912603729.X3.YINT2)    0.0000                               

(X_U1.X_min_timer_U1912603729.X3.YINT3)    0.0000        




    VOLTAGE SOURCE CURRENTS
    NAME         CURRENT

    V_V1        -6.200E-05
    V_V2         0.000E+00
    X_U1.V_current_limit_V1   0.000E+00
    X_U1.V_Drivers_V6   0.000E+00
    X_U1.V_Drivers_V4   0.000E+00
    X_U1.V_Drivers_V3   0.000E+00
    X_U1.V_Drivers_V5   0.000E+00
    X_U1.V_CS_AMP_V91   0.000E+00
    X_U1.V_CS_AMP_V90   0.000E+00
    X_U1.V_CS_AMP_V70   0.000E+00
    X_U1.V_CS_AMP_V92   0.000E+00
    X_U1.V_CS_AMP_V3   0.000E+00
    X_U1.V_CS_AMP_V86   0.000E+00
    X_U1.V_CS_AMP_V4   0.000E+00
    X_U1.V_VCC_REG_V82   0.000E+00
    X_U1.V_VCC_REG_V85   0.000E+00
    X_U1.V_VCC_REG_V84   0.000E+00
    X_U1.V_VCC_REG_V83   0.000E+00
    X_U1.V_VCC_REG_V45  -4.500E-06
    X_U1.V_OSC_V47  -7.343E-05
    X_U1.V_OSC_V45  -7.343E-05
    X_U1.V_OSC_V46   0.000E+00
    X_U1.V_V73   0.000E+00
    X_U1.V_min_timer_V86   0.000E+00
    X_U1.V_EA_SS_CCLOOP_V71  -1.650E-07
    X_U1.V_EA_SS_CCLOOP_V70  -1.280E-09
    X_U1.V_PGOOD_OVP_V4   0.000E+00
    X_U1.V_PGOOD_OVP_V1   0.000E+00
    X_U1.V_PGOOD_OVP_V2   0.000E+00
    X_U1.V_PGOOD_OVP_V3   0.000E+00
    X_U1.V_Slope_Comp_V1  -3.600E-05
    X_U1.V_DCM_V3  -2.000E-05
    X_U1.X_current_limit_U643.V1  -5.001E-12
    X_U1.X_current_limit_U652.V1  -9.910E-13
    X_U1.X_current_limit_U652.V2   1.098E-14
    X_U1.X_CS_AMP_U643.V1  -5.001E-12
    X_U1.X_CS_AMP_U1912603712.V1  -5.001E-12
    X_U1.X_CS_AMP_U731.V1  -9.910E-13
    X_U1.X_CS_AMP_U731.V2   1.098E-14
    X_U1.X_CS_AMP_U717.V1  -1.011E-12
    X_U1.X_CS_AMP_U717.V2  -5.677E-14
    X_U1.X_CS_AMP_U1912603719.V1  -5.001E-12
    X_U1.X_CS_AMP_U679.V1  -1.001E-12
    X_U1.X_CS_AMP_U679.V2   2.776E-27
    X_U1.X_min_timer_U829.v1  -1.011E-12
    X_U1.X_min_timer_U829.v2  -2.101E-01
    X_U1.X_OSC_H1.VH_OSC_H1  -7.343E-05
    X_U1.X_min_timer_U656.V1  -5.001E-12
    X_U1.X_min_timer_U643.V1  -5.001E-12
    X_U1.X_min_timer_U1912603729.V1  -5.001E-12
    X_U1.X_min_timer_U650.V1  -5.011E-12
    X_U1.X_min_timer_U660.V1  -5.001E-12
    X_U1.X_DCM_U1912603689.V1  -1.001E-12
    X_U1.X_DCM_U1912603689.V2   2.776E-27
    X_U1.X_DCM_U1912603696.V1  -9.910E-13
    X_U1.X_DCM_U1912603696.V2   1.098E-14

    TOTAL POWER DISSIPATION   2.38E-03  WATTS

Reducing minimum delta to make the circuit converge.
Reducing minimum delta to make the circuit converge.
Reducing minimum delta to make the circuit converge.
Reducing minimum delta to make the circuit converge.
Reducing minimum delta to make the circuit converge.

ERROR(ORPSIM-15138): Convergence problem in Transient Analysis at Time =  34.26E-06.
         Time step =  523.8E-21, minimum allowable step size =  1.000E-18

  These supply currents failed to converge:

    I(X_U1.E_VCC_REG_ABM168)  =    42.36nA  \   -7.188nA
    I(X_U1.X_min_timer_U829.v1) =   197.00fA  \   -1.020pA

  These devices failed to converge:
    D_D2      X_M6.Dbd  X_U1.E_VCC_REG_ABM168 X_U1.X_VCC_REG_U605.E_ABM 
    X_U1.G_VCC_REG_ABMI4 



  Last node voltages tried were:

 NODE   VOLTAGE     NODE   VOLTAGE     NODE   VOLTAGE     NODE   VOLTAGE


(  SW1)     .2134  (  SW2)     .2134  (  VIN)    6.6286  ( VOUT) 3.085E-06      

(VBIAS)    0.0000  (HDRV_1)     .2134 (HDRV_2)     .2134 (LDRV_1)-223.1E-09     

(LDRV_2)-67.43E-09 (N00304)   16.0000 (N00723)     .7000 (N00735)    6.6286     

(N00742)    5.9823 (N00881) 73.23E-12 (N00888)-598.5E-06 (N01212) 750.1E-09     

(N01219)    4.9999 (N01257) 1.914E-06 (N01384) 966.8E-12 (N01396) 8.781E-09     

(N02325) 85.69E-09 (N02548)     .2134 (N02564)     .2134 (N02568)    0.0000     

(N02764)    0.0000 (N10138)    0.0000 (X_M1.d)    6.6286 (X_M1.g)     .2134     

(X_M1.s)     .2134 (X_M2.d)     .2134 (X_M2.g)-468.4E-09 (X_M2.s) 9.747E-09     

(X_M3.d) 3.085E-06 (X_M3.g)     .2134 (X_M3.s)     .2134 (X_M4.d)     .2134     

(X_M4.g)-155.1E-09 (X_M4.s) 9.749E-09 (X_M6.d) 3.082E-06 (X_M6.g)-1.648E-12     

(X_M6.s) 868.0E-18 (N003611)    1.6203                   (N003771)    6.3190    

(N005090)    6.0446                   (N016771)     .2134                       

(N050881) 3.162E-06                   (N052841) 726.4E-09                       

(N074681) 3.082E-06                   (N123041)-98.52E-06                       

(X_M1.ga)     .2135                   (X_M1.gb)     .2134                       

(X_M2.ga)-2.701E-06                   (X_M2.gb) 10.31E-09                       

(X_M3.ga)     .2134                   (X_M3.gb)     .2134                       

(X_M4.ga)-824.7E-09                   (X_M4.gb) 9.899E-09                       

(X_M6.ga) 17.82E-12                   (X_M6.gb) 2.150E-15                       

(X_U1.CL)    0.0000                   (X_U1.EN)    0.0000                       

(X_U1.CCM)    0.0000                  (X_U1.CLK)    0.0000                      

(X_U1.OVP)    0.0000                  (X_U1.PWM)    1.0000                      

(X_U1.SCP)    0.0000                  (X_U1.VCS) 7.814E-09                      

(SENSE_GND) 9.748E-09                 (X_U1.CLKB)    1.0000                     

(X_U1.SDWN)    1.0000                 (X_U1.TOFF)    0.0000                     

(X_U1.VFSW) 73.43E-06                 (X_U1.HS_ON)    0.0000                    

(X_U1.LS_ON)    0.0000                (X_U1.RESET)    0.0000                    

(X_U1.VSLPK) 3.459E-09                (X_U1.HS_OFF)    0.0000                   

(X_U1.LS_OFF)    1.0000               (X_U1.UV_OUT)    1.0000                   

(X_U1.ZCD_BB)    1.0000               (X_M1.drain_a)    6.6286                  

(X_M1.drain_b)    6.6286              (X_M2.drain_a)     .2134                  

(X_M2.drain_b)     .2134              (X_M3.drain_a) 3.099E-06                  

(X_M3.drain_b)-177.7E-09              (X_M4.drain_a)     .2134                  

(X_M4.drain_b)     .2134              (X_M6.drain_a) 3.082E-06                  

(X_M6.drain_b) 3.083E-06              (X_U1.BUCK_SS)    -.0100                  

(X_U1.DCM_ENB)    1.0000              (X_U1.DRV_DIS)    1.0000                  

(X_U1.HIC_DIS)    1.0000              (X_U1.MODE_IN)    0.0000                  

(X_U1.MODE_OUT)    0.0000             (X_U1.BOOT1_SW1)-1.590E-06                

(X_U1.BOOT2_SW2)-3.631E-06            (X_U1.CLK_RESET)    0.0000                

(X_U1.N16282299)    1.0000            (X_U1.N16671835)    1.0000                

(X_U1.N16695899)    1.0000            (X_U1.N16696742)    1.0000                

(X_U1.N16703921)    1.0000            (X_U1.N16759475)    1.0000                

(X_U1.N16759612)    1.0000            (X_U1.N16776933)    0.0000                

(X_U1.N16777549)    0.0000            (X_U1.N16796502)    0.0000                

(X_U1.N16830305)    1.0000            (X_U1.N16841958)    1.0000                

(X_U1.N16842139)    1.0000            (X_U1.N16848312)    0.0000                

(X_U1.N16907082)    1.0000            (X_U1.N16907593)    1.0000                

(X_U1.COMP_GT_CL)    0.0000           (X_U1.CS_AMP_CLV)    1.0000               

(X_U1.CS_AMP_ENB)    1.0000           (X_U1.CS_AMP_SET)    1.0000               

(X_U1.DCM_HS2_BB)    1.0000           (X_U1.MODE_STATE)    0.0000               

(X_U1.CLK_RESET_B)    1.0000          (X_U1.SLOPE_RESET)    1.0000              

(X_U1.SS_COMPLETE)    0.0000          (X_U1.CS_AMP_5XVCS)-39.07E-09             

(X_U1.MIN_TIMER_IN)    1.0000         (X_U1.VCC_REG_STBY)    0.0000             

(X_U1.CS_AMP_VCL_SL)     .4000        (X_U1.CURRENT_LIMIT)    0.0000            

(X_U1.DCM_N16776763)    0.0000        (X_U1.DCM_N16776811)    1.0000            

(X_U1.DCM_N16777502)    0.0000        (X_U1.DCM_N16777504)    1.0000            

(X_U1.DCM_N16777543)    1.0000        (X_U1.DCM_N16777607)    1.0000            

(X_U1.DCM_N16777612)    1.0000        (X_U1.DCM_N16777973)    7.5000            

(X_U1.DCM_N16779675)    0.0000        (X_U1.DCM_N16779821)    1.0000            

(X_U1.DCM_N16779937)    1.0000        (X_U1.DCM_N16783519)    1.0000            

(X_U1.DCM_N16792892)    1.0000        (X_U1.DCM_N16799915)    1.0000            

(X_U1.DCM_N16802077)    0.0000        (X_U1.DCM_N16802805)    1.0000            

(X_U1.DCM_N16809464)    1.0000        (X_U1.min_timer_ENB)    1.0000            

(X_U1.MIN_TIMER_INB)    0.0000        (X_U1.min_timer_RES)    0.0000            

(X_U1.min_timer_SET)    1.0000        (X_U1.OSC_N16673143) 73.43E-06            

(X_U1.OSC_N16673175)    1.0000        (X_U1.OSC_N16673275)    1.0000            

(X_U1.OSC_N16673361)    0.0000        (X_U1.OSC_N16673513)    5.0000            

(X_U1.OSC_N16673551)    1.0000        (X_U1.OSC_N16673585)   10.0000            

(X_U1.OSC_N16738540)    5.0000        (X_U1.OSC_N16739835)    5.0000            

(X_U1.X_OSC_U136.CH)    1.0000        (X_U1.CS_AMP_OUT75NS)    0.0000           

(X_U1.VOUT_GT_VIN_1V)    0.0000       (X_U1.BUCK_BOOST_MODE)    0.0000          

(X_U1.CS_AMP_CL_LIMIT)     .8000      (X_U1.CS_AMP_N5085050)-39.07E-09          

(X_U1.CS_AMP_N5085126) 39.07E-09      (X_U1.CS_AMP_OUT100NS)    0.0000          

(X_U1.CS_AMP_OUT150NS)    0.0000      (X_U1.CS_AMP_PWM_PATH)    0.0000          

(X_U1.CS_AMP_VCOMP_SL)   -1.7006      (X_U1.X_DCM_U828.YINT)    0.0000          

(X_U1.X_DCM_U830.YINT)    0.0000      (X_U1.X_OSC_U131.Yint)    0.0000          

(X_U1.X_OSC_U134.YINT)    1.0000      (X_U1.X_OSC_U135.YINT)    1.0000          

(X_U1.X_OSC_U136.MEAS)    1.0000      (X_U1.X_OSC_U137.YINT)    1.0000          

(X_U1.ZCD_BUCK_SIGNAL)    0.0000      (X_U1.CS_AMP_MODE_OUTB)    1.0000         

(X_U1.CS_AMP_N16754025)   -1.7006     (X_U1.CS_AMP_N16764308)    0.0000         

(X_U1.CS_AMP_N16764328)    0.0000     (X_U1.CS_AMP_N16774427)    1.0000         

(X_U1.CS_AMP_N16779166)    1.0000     (X_U1.CS_AMP_N16791086)    0.0000         

(X_U1.CS_AMP_N16795582)    0.0000     (X_U1.CS_AMP_N16795696)    0.0000         

(X_U1.CS_AMP_N16795824)    1.0000     (X_U1.CS_AMP_N16795838)    1.0000         

(X_U1.CS_AMP_N16795996)    1.0000     (X_U1.CS_AMP_N16796221)    1.0000         

(X_U1.CS_AMP_N16796719)    1.0000     (X_U1.CS_AMP_N16807016)    4.6100         

(X_U1.CS_AMP_N16807049)     .5000     (X_U1.CS_AMP_N16807118)    4.6100         

(X_U1.CS_AMP_N16807151)     .5000     (X_U1.CS_AMP_N16817017)    0.0000         

(X_U1.CS_AMP_N16829651)    1.0000     (X_U1.CS_AMP_N16829821)    1.0000         

(X_U1.CS_AMP_N16832428)    1.0000     (X_U1.CS_AMP_N16832433)    1.0000         

(X_U1.CS_AMP_N16838708)    0.0000     (X_U1.CS_AMP_N16841607)    0.0000         

(X_U1.CS_AMP_N16841614)    0.0000     (X_U1.CS_AMP_N16841653)    0.0000         

(X_U1.CS_AMP_N16841836)    0.0000     (X_U1.CS_AMP_N16841955)    1.0000         

(X_U1.CS_AMP_N16842045)    0.0000     (X_U1.CS_AMP_N16842121)    0.0000         

(X_U1.CS_AMP_N16846627)    0.0000     (X_U1.CS_AMP_N16848137)     .0400         

(X_U1.CS_AMP_N16848292)    1.0000     (X_U1.CS_AMP_N16905880)    1.0000         

(X_U1.CS_AMP_N16905945)    1.0000     (X_U1.CS_AMP_N16906034)    1.0000         

(X_U1.CS_AMP_N16907073)    0.0000     (X_U1.CS_AMP_N16907333)    1.0000         

(X_U1.CS_AMP_N16907587)    0.0000     (X_U1.CS_AMP_N16907823)    0.0000         

(X_U1.CS_AMP_N17091330)    0.0000     (X_U1.CS_AMP_N17091334)    0.0000         

(X_U1.CS_AMP_N17091373)    0.0000     (X_U1.CS_AMP_N17104093) 9.996E-30         

(X_U1.CS_AMP_N17104097)    0.0000     (X_U1.CS_AMP_N17104136)    1.0000         

(X_U1.CS_AMP_N17113525)    0.0000     (X_U1.CS_AMP_N17113541)    0.0000         

(X_U1.CS_AMP_N17113580)    1.0000     (X_U1.CS_AMP_N17212668)    0.0000         

(X_U1.CS_AMP_N17230591)    1.0000     (X_U1.PGOOD_OVP_N00112)     .8800         

(X_U1.PGOOD_OVP_N00126)     .7200     (X_U1.X_CS_AMP_U1.Yint)    1.0000         

(X_U1.X_CS_AMP_U2.Yint)    0.0000     (X_U1.X_CS_AMP_U8.YINT)    1.0000         

(X_U1.X_CS_AMP_U9.YINT)    0.0000     (X_U1.X_DCM_U827.YINT1)    0.0000         

(X_U1.X_DCM_U827.YINT2)    0.0000     (X_U1.X_DCM_U827.YINT3)    1.0000         

(X_U1.X_DCM_U829.YINT1)    0.0000     (X_U1.X_DCM_U829.YINT2)    0.0000         

(X_U1.X_DCM_U829.YINT3)    1.0000     (X_U1.X_OSC_U132.YINT1)    1.0000         

(X_U1.X_OSC_U132.YINT2)    1.0000     (X_U1.X_OSC_U132.YINT3)    0.0000         

(X_U1.X_OSC_U133.YINT1)    0.0000     (X_U1.X_OSC_U133.YINT2)    0.0000         

(X_U1.X_OSC_U133.YINT3)    1.0000     (X_U1.X_OSC_U136.RESET)    0.0000         

(X_U1.X_PGOOD_OVP_U5.1)    0.0000     (X_U1.CS_AMP_LD2_STATUS)    1.0000        

(X_U1.CS_AMP_N167757052)    1.0000    (X_U1.CS_AMP_UVLO_BOOT1)    1.0000        

(X_U1.CS_AMP_UVLO_BOOT2)    1.0000    (X_U1.current_limit_SET)    1.0000        

(X_U1.Drivers_N16758767)    0.0000    (X_U1.Drivers_N16759768)    0.0000        

(X_U1.Drivers_N16775793)    0.0000    (X_U1.Drivers_N16787552)    0.0000        

(X_U1.Drivers_N16797448)    0.0000    (X_U1.Drivers_N16797453)    1.0000        

(X_U1.Drivers_N16797604)    0.0000    (X_U1.Drivers_N16797699)    0.0000        

(X_U1.Drivers_N16798534)    0.0000    (X_U1.Drivers_N16798559)    0.0000        

(X_U1.Drivers_N16798562)    0.0000    (X_U1.Drivers_N16798615)    0.0000        

(X_U1.Drivers_N16798623)    1.0000    (X_U1.Drivers_N16798765)    0.0000        

(X_U1.Drivers_N16799006)    1.0000    (X_U1.Drivers_N16802369)    1.0000        

(X_U1.Drivers_N16802471)    1.0000    (X_U1.Drivers_N16804514)    1.0000        

(X_U1.Drivers_N16805692)    0.0000    (X_U1.Drivers_N16807442)    2.8600        

(X_U1.Drivers_N16808380)    0.0000    (X_U1.Drivers_N16812942)    0.0000        

(X_U1.Drivers_N16816435)    2.8600    (X_U1.Drivers_N16816675)     .3200        

(X_U1.Drivers_N16816977)     .3200    (X_U1.Drivers_PRE_HDRV1)    0.0000        

(X_U1.Drivers_PRE_HDRV2)    0.0000    (X_U1.Drivers_PRE_LDRV1)    0.0000        

(X_U1.Drivers_PRE_LDRV2)    0.0000    (X_U1.UVLO_BT1_DETECTED)    0.0000        

(X_U1.VCC_REG_N16764625)    5.9822    (X_U1.VCC_REG_N16764709)    3.3000        

(X_U1.VCC_REG_N16764761)    3.3000    (X_U1.VCC_REG_N16764767)    1.0000        

(X_U1.VCC_REG_N16764827)    0.0000    (X_U1.VCC_REG_N16764877)     .7000        

(X_U1.VCC_REG_N16765003)    1.2200    (X_U1.VCC_REG_N16765009)    0.0000        

(X_U1.VCC_REG_N16765121)    0.0000    (X_U1.VCC_REG_N16765253)    8.0000        

(X_U1.VCC_REG_N16765297)    0.0000    (X_U1.VCC_REG_N16765307)    0.0000        

(X_U1.X_CS_AMP_U643.MY5)    5.0000    (X_U1.X_CS_AMP_U643.Qbr)    1.0000        

(X_U1.X_CS_AMP_U643.Qqq)    -.0935    (X_U1.X_CS_AMP_U679.MY5)    1.0000        

(X_U1.X_CS_AMP_U679.Qbr)    1.0000    (X_U1.X_CS_AMP_U679.Qqq) 34.30E-09        

(X_U1.X_CS_AMP_U717.MY5)    1.0000    (X_U1.X_CS_AMP_U717.Qbr)    1.0000        

(X_U1.X_CS_AMP_U717.Qqq)    -.0935    (X_U1.X_CS_AMP_U731.MY5)    1.0000        

(X_U1.X_CS_AMP_U731.Qbr)    1.0000    (X_U1.X_CS_AMP_U731.Qqq) 34.30E-09        

(X_U1.X_OSC_U136.RESET2)    0.0000    (X_U1.X_VCC_REG_U6.YINT)    0.0000        

(X_U1.CS_AMP_UVLOB_BOOT1)    0.0000   (X_U1.CS_AMP_UVLOB_BOOT2)    0.0000       

(X_U1.current_limit_SHDN)    1.0000   (X_U1.Drivers_UVLO_BOOT1)    1.0000       

(X_U1.Drivers_UVLO_BOOT2)    1.0000   (X_U1.PGOOD_OVP_NO_PGOOD)    1.0000       

(X_U1.PWM_COMPARATOR_OUT)    0.0000   (X_U1.X_CS_AMP_U643.Qint)    -.0935       

(X_U1.X_CS_AMP_U670.YINT)    0.0000   (X_U1.X_CS_AMP_U672.YINT)    0.0000       

(X_U1.X_CS_AMP_U674.YINT)    0.0000   (X_U1.X_CS_AMP_U679.Qint) 34.30E-09       

(X_U1.X_CS_AMP_U681.YINT)    0.0000   (X_U1.X_CS_AMP_U682.YINT)    0.0000       

(X_U1.X_CS_AMP_U685.YINT)    1.0000   (X_U1.X_CS_AMP_U686.YINT)    1.0000       

(X_U1.X_CS_AMP_U687.YINT)    1.0000   (X_U1.X_CS_AMP_U688.YINT)    1.0000       

(X_U1.X_CS_AMP_U691.YINT)    1.0000   (X_U1.X_CS_AMP_U694.YINT)    0.0000       

(X_U1.X_CS_AMP_U695.YINT)    1.0000   (X_U1.X_CS_AMP_U698.YINT)    0.0000       

(X_U1.X_CS_AMP_U702.YINT)    1.0000   (X_U1.X_CS_AMP_U703.YINT)    1.0000       

(X_U1.X_CS_AMP_U704.YINT)    0.0000   (X_U1.X_CS_AMP_U706.YINT)    1.0000       

(X_U1.X_CS_AMP_U709.YINT)    1.0000   (X_U1.X_CS_AMP_U713.YINT)    0.0000       

(X_U1.X_CS_AMP_U714.YINT)    0.0000   (X_U1.X_CS_AMP_U715.YINT)    0.0000       

(X_U1.X_CS_AMP_U717.Qint)    -.0935   (X_U1.X_CS_AMP_U718.YINT)    1.0000       

(X_U1.X_CS_AMP_U719.YINT)    1.0000   (X_U1.X_CS_AMP_U721.YINT)    0.0000       

(X_U1.X_CS_AMP_U722.YINT)    0.0000   (X_U1.X_CS_AMP_U724.YINT)    0.0000       

(X_U1.X_CS_AMP_U726.YINT)    0.0000   (X_U1.X_CS_AMP_U727.YINT)    1.0000       

(X_U1.X_CS_AMP_U728.Yint)    0.0000   (X_U1.X_CS_AMP_U730.YINT)    1.0000       

(X_U1.X_CS_AMP_U731.Qint) 34.30E-09   (X_U1.X_CS_AMP_U732.YINT)    1.0000       

(X_U1.X_CS_AMP_U733.YINT)    1.0000   (X_U1.X_CS_AMP_U734.YINT)    0.0000       

(X_U1.X_CS_AMP_U735.YINT)    1.0000   (X_U1.X_CS_AMP_U736.YINT)    1.0000       

(X_U1.X_CS_AMP_U738.YINT)    0.0000   (X_U1.X_CS_AMP_U739.YINT)    1.0000       

(X_U1.X_CS_AMP_U823.YINT)    0.0000   (X_U1.X_CS_AMP_U825.YINT)    0.0000       

(X_U1.X_CS_AMP_U830.YINT)    0.0000   (X_U1.current_limit_COUNT)    0.0000      

(X_U1.DCM_ZEROCROSS_BOOST)    0.0000  (X_U1.Drivers_UVLOB_BOOT1)    0.0000      

(X_U1.Drivers_UVLOB_BOOT2)    0.0000  (X_U1.min_timer_N16666348)    0.0000      

(X_U1.min_timer_N16671724)    0.0000  (X_U1.min_timer_N16671739)    0.0000      

(X_U1.min_timer_N16671780)    0.0000  (X_U1.min_timer_N16696309)    0.0000      

(X_U1.min_timer_N16696802)    1.0000  (X_U1.min_timer_N16741309)    0.0000      

(X_U1.min_timer_N16741475)    1.0000  (X_U1.min_timer_N16744010)    1.0000      

(X_U1.min_timer_N16808035)    0.0000  (X_U1.min_timer_N16808041)    0.0000      

(X_U1.min_timer_N16808082)    1.0000  (X_U1.min_timer_N16820676)    1.0000      

(X_U1.PGOOD_OVP_N16769754)    0.0000  (X_U1.PGOOD_OVP_N16769766)    1.0000      

(X_U1.PGOOD_OVP_N16769927)     .8600  (X_U1.PGOOD_OVP_N16770999)     .0200      

(X_U1.PWM_COMPARATOR_OUTB)    1.0000  (X_U1.X_CS_AMP_U643.Qqqd1)    0.0000      

(X_U1.X_CS_AMP_U679.MYVSS)    0.0000  (X_U1.X_CS_AMP_U679.Qqqd1)    0.0000      

(X_U1.X_CS_AMP_U696.YINT1)    1.0000  (X_U1.X_CS_AMP_U696.YINT2)    1.0000      

(X_U1.X_CS_AMP_U696.YINT3)    1.0000  (X_U1.X_CS_AMP_U697.YINT1)    1.0000      

(X_U1.X_CS_AMP_U697.YINT2)    1.0000  (X_U1.X_CS_AMP_U697.YINT3)    1.0000      

(X_U1.X_CS_AMP_U717.MYVSS)    0.0000  (X_U1.X_CS_AMP_U717.Qqqd1)    0.0000      

(X_U1.X_CS_AMP_U731.MYVSS)    0.0000  (X_U1.X_CS_AMP_U731.Qqqd1)    0.0000      

(X_U1.X_CS_AMP_U822.YINT1)    1.0000  (X_U1.X_CS_AMP_U822.YINT2)    1.0000      

(X_U1.X_CS_AMP_U822.YINT3)    0.0000  (X_U1.X_CS_AMP_U824.YINT1)    0.0000      

(X_U1.X_CS_AMP_U824.YINT2)    0.0000  (X_U1.X_CS_AMP_U824.YINT3)    1.0000      

(X_U1.X_CS_AMP_U829.YINT1)    0.0000  (X_U1.X_CS_AMP_U829.YINT2)    0.0000      

(X_U1.X_CS_AMP_U829.YINT3)    1.0000  (X_U1.X_min_timer_U7.YINT)    0.0000      

(X_U1.X_PGOOD_OVP_U1.Yint)    0.0000  (X_U1.X_PGOOD_OVP_U2.Yint)    1.0000      

(X_U1.X_PGOOD_OVP_U3.YINT)    1.0000  (X_U1.X_PGOOD_OVP_U5.INM1)     .8600      

(X_U1.X_PGOOD_OVP_U5.INP1)    0.0000  (X_U1.X_PGOOD_OVP_U5.INP2)    0.0000      

(X_U1.X_VCC_REG_U604.YINT)    0.0000  (X_U1.X_VCC_REG_U605.Yint)    1.0000      

(X_U1.X_VCC_REG_U606.Yint)    0.0000  (X_U1.X_VCC_REG_U607.YINT)    0.0000      

(X_U1.X_VCC_REG_U608.YINT)    0.0000  (X_U1.X_VCC_REG_U611.YINT)    5.9823      

(X_U1.X_VCC_REG_U612.Yint)    1.0000  (X_U1.X_VCC_REG_U613.Yint)    0.0000      

(X_U1.min_timer_INPUT1P2US)    0.0000 (X_U1.Sample_Hold_N4181858) 1.914E-06     

(X_U1.Slope_Comp_N16719883)   -6.6286 (X_U1.Slope_Comp_N16719957)    6.6286     

(X_U1.Slope_Comp_N16720003)    3.3000 (X_U1.Slope_Comp_N16720101)    6.6286     

(X_U1.Slope_Comp_N16766844)    1.0000 (X_U1.Slope_Comp_N16783181)    1.0000     

(X_U1.X_CS_AMP_U643.CLKdel)    0.0000 (X_U1.X_CS_AMP_U643.CLKint)    0.0000     

(X_U1.X_min_timer_U643.MY5)    5.0000 (X_U1.X_min_timer_U643.Qbr)    1.0000     

(X_U1.X_min_timer_U643.Qqq)    -.0935 (X_U1.X_min_timer_U650.MY5)    5.0000     

(X_U1.X_min_timer_U650.Qbr)    1.0000 (X_U1.X_min_timer_U650.Qqq)    -.0935     

(X_U1.X_min_timer_U656.MY5)    5.0000 (X_U1.X_min_timer_U656.Qbr)    1.0000     

(X_U1.X_min_timer_U656.Qqq)    -.0935 (X_U1.X_min_timer_U660.MY5)    5.0000     

(X_U1.X_min_timer_U660.Qbr)    1.0000 (X_U1.X_min_timer_U660.Qqq)    -.0935     

(X_U1.X_min_timer_U829.my5)    1.0000 (X_U1.X_min_timer_U829.qbr)    1.0000     

(X_U1.X_min_timer_U829.qqq)    -.0343 (X_U1.CS_AMP_CURRENT_LIMITB)    1.0000    

(X_U1.CS_AMP_PWM_RESET_MASK)    1.0000                                          

(X_U1.min_timer_OUTPUT1P2US)    1.0000                                          

(X_U1.Sample_Hold_N16739384) 1.914E-06                                          

(X_U1.Sample_Hold_N16745210) 1.914E-06                                          

(X_U1.Sample_Hold_N16771557)    0.0000                                          

(X_U1.X_CS_AMP_U643.X2.YINT)    0.0000                                          

(X_U1.X_CS_AMP_U679.X3.YINT)    0.0000                                          

(X_U1.X_CS_AMP_U717.X3.YINT)    0.0000                                          

(X_U1.X_CS_AMP_U731.X3.YINT)    0.0000                                          

(X_U1.X_DCM_U1912603689.MY5)    1.0000                                          

(X_U1.X_DCM_U1912603689.Qbr)    1.0000                                          

(X_U1.X_DCM_U1912603689.Qqq)    -.0935                                          

(X_U1.X_DCM_U1912603696.MY5)    1.0000                                          

(X_U1.X_DCM_U1912603696.Qbr)    1.0000                                          

(X_U1.X_DCM_U1912603696.Qqq) 34.30E-09                                          

(X_U1.X_min_timer_U643.Qint)    -.0935                                          

(X_U1.X_min_timer_U645.YINT)    1.0000                                          

(X_U1.X_min_timer_U650.Qint)    -.0935                                          

(X_U1.X_min_timer_U651.YINT)    0.0000                                          

(X_U1.X_min_timer_U655.YINT)    0.0000                                          

(X_U1.X_min_timer_U656.Qint)    -.0935                                          

(X_U1.X_min_timer_U660.Qint)    -.0935                                          

(X_U1.X_min_timer_U661.YINT)    0.0000                                          

(X_U1.X_min_timer_U689.YINT)    1.0000                                          

(X_U1.X_min_timer_U690.YINT)    0.0000                                          

(X_U1.X_min_timer_U691.YINT)    1.0000                                          

(X_U1.X_min_timer_U692.YINT)    0.0000                                          

(X_U1.X_min_timer_U693.YINT)    1.0000                                          

(X_U1.X_min_timer_U696.YINT)    0.0000                                          

(X_U1.X_min_timer_U823.YINT)    0.0000                                          

(X_U1.X_min_timer_U826.YINT)    1.0000                                          

(X_U1.X_min_timer_U828.YINT)    0.0000                                          

(X_U1.X_min_timer_U829.qint)    -.0343                                          

(X_U1.EA_SS_CCLOOP_N16151810)    1.2200                                         

(X_U1.EA_SS_CCLOOP_N16151836)    -.0100                                         

(X_U1.EA_SS_CCLOOP_N16737187)    3.3000                                         

(X_U1.EA_SS_CCLOOP_N16738178)    0.0000                                         

(X_U1.EA_SS_CCLOOP_N16783515)    1.0000                                         

(X_U1.EA_SS_CCLOOP_N16783983)    1.0000                                         

(X_U1.min_timer_LDRVXGT1P2US)    0.0000                                         

(X_U1.X_CS_AMP_U1912603705.1)    0.0000                                         

(X_U1.X_CS_AMP_U1912603707.1)    0.0000                                         

(X_U1.X_CS_AMP_U643.X1.YINT1)    1.0000                                         

(X_U1.X_CS_AMP_U643.X1.YINT2)    1.0000                                         

(X_U1.X_CS_AMP_U643.X1.YINT3)    0.0000                                         

(X_U1.X_CS_AMP_U643.X3.YINT1)    0.0000                                         

(X_U1.X_CS_AMP_U643.X3.YINT2)    0.0000                                         

(X_U1.X_CS_AMP_U643.X3.YINT3)    0.0000                                         

(X_U1.X_DCM_U1912603662.YINT)    0.0000                                         

(X_U1.X_DCM_U1912603666.YINT)    1.0000                                         

(X_U1.X_DCM_U1912603669.YINT)    1.0000                                         

(X_U1.X_DCM_U1912603671.YINT)    1.0000                                         

(X_U1.X_DCM_U1912603675.YINT)    1.0000                                         

(X_U1.X_DCM_U1912603679.YINT)    0.0000                                         

(X_U1.X_DCM_U1912603680.YINT)    1.0000                                         

(X_U1.X_DCM_U1912603684.YINT)    1.0000                                         

(X_U1.X_DCM_U1912603687.YINT)    1.0000                                         

(X_U1.X_DCM_U1912603689.Qint)    -.0935                                         

(X_U1.X_DCM_U1912603692.YINT)    1.0000                                         

(X_U1.X_DCM_U1912603693.YINT)    1.0000                                         

(X_U1.X_DCM_U1912603695.YINT)    1.0000                                         

(X_U1.X_DCM_U1912603696.Qint) 34.30E-09                                         

(X_U1.X_DCM_U1912603697.YINT)    1.0000                                         

(X_U1.X_DCM_U1912603701.YINT)    0.0000                                         

(X_U1.X_DCM_U1912603702.YINT)    1.0000                                         

(X_U1.X_EA_SS_CCLOOP_U2.YINT)    1.0000                                         

(X_U1.X_EA_SS_CCLOOP_U3.YINT)    1.0000                                         

(X_U1.X_min_timer_U643.Qqqd1)    0.0000                                         

(X_U1.X_min_timer_U650.Qqqd1)    0.0000                                         

(X_U1.X_min_timer_U656.Qqqd1)    0.0000                                         

(X_U1.X_min_timer_U660.Qqqd1)    0.0000                                         

(X_U1.X_min_timer_U685.YINT1)    0.0000                                         

(X_U1.X_min_timer_U685.YINT2)    0.0000                                         

(X_U1.X_min_timer_U685.YINT3)    0.0000                                         

(X_U1.X_min_timer_U822.YINT1)    0.0000                                         

(X_U1.X_min_timer_U822.YINT2)    0.0000                                         

(X_U1.X_min_timer_U822.YINT3)    1.0000                                         

(X_U1.X_min_timer_U827.YINT1)    0.0000                                         

(X_U1.X_min_timer_U827.YINT2)    0.0000                                         

(X_U1.X_min_timer_U827.YINT3)    1.0000                                         

(X_U1.X_min_timer_U829.myvss)    0.0000                                         

(X_U1.X_min_timer_U829.qqqd1)    0.0000                                         

(X_U1.X_min_timer_U834.YINT1)    0.0000                                         

[...]

(X_U1.X_min_timer_U650.Qqqd1)    0.0000                                         

(X_U1.X_min_timer_U656.Qqqd1)    0.0000                                         

(X_U1.X_min_timer_U660.Qqqd1)    0.0000                                         

(X_U1.X_min_timer_U685.YINT1)    0.0000                                         

(X_U1.X_min_timer_U685.YINT2)    0.0000                                         

(X_U1.X_min_timer_U685.YINT3)    0.0000                                         

(X_U1.X_min_timer_U822.YINT1)    0.0000                                         

(X_U1.X_min_timer_U822.YINT2)    0.0000                                         

(X_U1.X_min_timer_U822.YINT3)    1.0000                                         

(X_U1.X_min_timer_U827.YINT1)    0.0000                                         

(X_U1.X_min_timer_U827.YINT2)    0.0000                                         

(X_U1.X_min_timer_U827.YINT3)    1.0000                                         

(X_U1.X_min_timer_U829.myvss)    0.0000                                         

(X_U1.X_min_timer_U829.qqqd1)    0.0000                                         

(X_U1.X_min_timer_U834.YINT1)    0.0000                                         

(X_U1.X_min_timer_U834.YINT2)    0.0000                                         

(X_U1.X_min_timer_U834.YINT3)    0.0000                                         

(X_U1.X_Slope_Comp_U690.YINT)    1.0000                                         

(X_U1.X_Slope_Comp_U701.YINT)    1.0000                                         

(X_U1.current_limit_N16759077)    1.0000                                        

(X_U1.current_limit_N16759254)    0.0000                                        

(X_U1.current_limit_N16759334)    0.0000                                        

(X_U1.current_limit_N16759346)    0.0000                                        

(X_U1.current_limit_N16759449)    1.0000                                        

(X_U1.current_limit_N16759550)    0.0000                                        

(X_U1.current_limit_N16759828)    1.0000                                        

(X_U1.current_limit_N16760473)    1.0000                                        

(X_U1.current_limit_N16760479)    0.0000                                        

(X_U1.current_limit_N16760513)    0.0000                                        

(X_U1.current_limit_N16764480)    1.0000                                        

(X_U1.current_limit_N16764798)    1.0000                                        

(X_U1.current_limit_N16779506)    0.0000                                        

(X_U1.min_timer_PULSE_BB_TRAN)    0.0000                                        

(X_U1.X_current_limit_U2.YINT)    0.0000                                        

(X_U1.X_current_limit_U3.YINT)    1.0000                                        

(X_U1.X_current_limit_U4.YINT)    0.0000                                        

(X_U1.X_current_limit_U6.YINT)    0.0000                                        

(X_U1.X_DCM_U1912603689.MYVSS)    0.0000                                        

(X_U1.X_DCM_U1912603689.Qqqd1)    0.0000                                        

(X_U1.X_DCM_U1912603696.MYVSS)    0.0000                                        

(X_U1.X_DCM_U1912603696.Qqqd1)    0.0000                                        

(X_U1.X_Drivers_U1912603705.1)    0.0000                                        

(X_U1.X_Drivers_U1912603707.1)    0.0000                                        

(X_U1.X_min_timer_U643.CLKdel)    1.0000                                        

(X_U1.X_min_timer_U643.CLKint)    0.0000                                        

(X_U1.X_min_timer_U650.CLKdel)    1.0000                                        

(X_U1.X_min_timer_U650.CLKint)    0.0000                                        

(X_U1.X_min_timer_U656.CLKdel)    1.0000                                        

(X_U1.X_min_timer_U656.CLKint)    0.0000                                        

(X_U1.X_min_timer_U660.CLKdel)    1.0000                                        

(X_U1.X_min_timer_U660.CLKint)    0.0000                                        

(X_U1.X_Slope_Comp_U702.YINT1)    1.0000                                        

(X_U1.X_Slope_Comp_U702.YINT2)    1.0000                                        

(X_U1.X_Slope_Comp_U702.YINT3)    1.0000                                        

(X_U1.CS_AMP_NEG_CURRENT_LIMIT)    0.0000                                       

(X_U1.CS_AMP_UVLO_BT2_DETECTED)    0.0000                                       

(X_U1.current_limit_128_CYCLES)    0.0000                                       

(X_U1.min_timer_LDRVXLTBB_TRAN)    0.0000                                       

(X_U1.min_timer_PULSELTBB_TRAN)    0.0000                                       

(X_U1.min_timer_PULSE_GT_1P2US)    0.0000                                       

(X_U1.X_CS_AMP_U1912603712.MY5)    5.0000                                       

(X_U1.X_CS_AMP_U1912603712.Qbr)    1.0000                                       

(X_U1.X_CS_AMP_U1912603712.Qqq)    -.0935                                       

(X_U1.X_CS_AMP_U1912603719.MY5)    5.0000                                       

(X_U1.X_CS_AMP_U1912603719.Qbr)    1.0000                                       

(X_U1.X_CS_AMP_U1912603719.Qqq)    -.0935                                       

(X_U1.X_current_limit_U643.MY5)    5.0000                                       

(X_U1.X_current_limit_U643.Qbr)    1.0000                                       

(X_U1.X_current_limit_U643.Qqq)    -.0935                                       

(X_U1.X_current_limit_U652.MY5)    1.0000                                       

(X_U1.X_current_limit_U652.Qbr)    1.0000                                       

(X_U1.X_current_limit_U652.Qqq)    -.0935                                       

(X_U1.X_min_timer_U643.X2.YINT)    0.0000                                       

(X_U1.X_min_timer_U650.X2.YINT)    0.0000                                       

(X_U1.X_min_timer_U656.X2.YINT)    0.0000                                       

(X_U1.X_min_timer_U660.X2.YINT)    0.0000                                       

(X_U1.X_min_timer_U829.x3.YINT)    0.0000                                       

(X_U1.current_limit_3968_CYCLES)    0.0000                                      

(X_U1.min_timer_CLK_RESET_PULSE)    0.0000                                      

(X_U1.X_CS_AMP_U1912603705.INM1)    4.6100                                      

(X_U1.X_CS_AMP_U1912603705.INP1)    0.0000                                      

(X_U1.X_CS_AMP_U1912603705.INP2)    0.0000                                      

(X_U1.X_CS_AMP_U1912603706.YINT)    1.0000                                      

(X_U1.X_CS_AMP_U1912603707.INM1)    4.6100                                      

(X_U1.X_CS_AMP_U1912603707.INP1)    0.0000                                      

(X_U1.X_CS_AMP_U1912603707.INP2)    0.0000                                      

(X_U1.X_CS_AMP_U1912603708.YINT)    1.0000                                      

(X_U1.X_CS_AMP_U1912603712.Qint)    -.0935                                      

(X_U1.X_CS_AMP_U1912603713.YINT)    0.0000                                      

(X_U1.X_CS_AMP_U1912603714.YINT)    0.0000                                      

(X_U1.X_CS_AMP_U1912603719.Qint)    -.0935                                      

(X_U1.X_CS_AMP_U1912603723.YINT)    0.0000                                      

(X_U1.X_CS_AMP_U1912603724.YINT)    1.0000                                      

(X_U1.X_CS_AMP_U1912603725.YINT)    0.0000                                      

(X_U1.X_CS_AMP_U1912603726.YINT)    0.0000                                      

(X_U1.X_CS_AMP_U1912603727.YINT)    0.0000                                      

(X_U1.X_CS_AMP_U1912603728.YINT)    0.0000                                      

(X_U1.X_CS_AMP_U1912603730.YINT)    1.0000                                      

(X_U1.X_CS_AMP_U1912603731.YINT)    0.0000                                      

(X_U1.X_current_limit_U643.Qint)    -.0935                                      

(X_U1.X_current_limit_U644.YINT)    1.0000                                      

(X_U1.X_current_limit_U645.YINT)    0.0000                                      

(X_U1.X_current_limit_U648.YINT)    0.0000                                      

(X_U1.X_current_limit_U649.YINT)    1.0000                                      

(X_U1.X_current_limit_U650.YINT)    1.0000                                      

(X_U1.X_current_limit_U651.YINT)    1.0000                                      

(X_U1.X_current_limit_U652.Qint)    -.0935                                      

(X_U1.X_current_limit_U656.YINT)    1.0000                                      

(X_U1.X_current_limit_U658.YINT)    1.0000                                      

(X_U1.X_current_limit_U659.YINT)    1.0000                                      

(X_U1.X_current_limit_U828.YINT)    0.0000                                      

(X_U1.X_DCM_U1912603689.X3.YINT)    0.0000                                      

(X_U1.X_DCM_U1912603696.X3.YINT)    0.0000                                      

(X_U1.X_min_timer_U643.X1.YINT1)    0.0000                                      

(X_U1.X_min_timer_U643.X1.YINT2)    0.0000                                      

(X_U1.X_min_timer_U643.X1.YINT3)    1.0000                                      

(X_U1.X_min_timer_U643.X3.YINT1)    0.0000                                      

(X_U1.X_min_timer_U643.X3.YINT2)    0.0000                                      

(X_U1.X_min_timer_U643.X3.YINT3)    0.0000                                      

(X_U1.X_min_timer_U650.X1.YINT1)    0.0000                                      

(X_U1.X_min_timer_U650.X1.YINT2)    0.0000                                      

(X_U1.X_min_timer_U650.X1.YINT3)    1.0000                                      

(X_U1.X_min_timer_U650.X3.YINT1)    0.0000                                      

(X_U1.X_min_timer_U650.X3.YINT2)    0.0000                                      

(X_U1.X_min_timer_U650.X3.YINT3)    0.0000                                      

(X_U1.X_min_timer_U656.X1.YINT1)    0.0000                                      

(X_U1.X_min_timer_U656.X1.YINT2)    0.0000                                      

(X_U1.X_min_timer_U656.X1.YINT3)    1.0000                                      

(X_U1.X_min_timer_U656.X3.YINT1)    0.0000                                      

(X_U1.X_min_timer_U656.X3.YINT2)    0.0000                                      

(X_U1.X_min_timer_U656.X3.YINT3)    0.0000                                      

(X_U1.X_min_timer_U660.X1.YINT1)    0.0000                                      

(X_U1.X_min_timer_U660.X1.YINT2)    0.0000                                      

(X_U1.X_min_timer_U660.X1.YINT3)    1.0000                                      

(X_U1.X_min_timer_U660.X3.YINT1)    0.0000                                      

(X_U1.X_min_timer_U660.X3.YINT2)    0.0000                                      

(X_U1.X_min_timer_U660.X3.YINT3)    0.0000                                      

(X_U1.CS_AMP_LD1_STATUSB_OR_ZCDB)    1.0000                                     

(X_U1.min_timer_min_on_N16772126)    0.0000                                     

(X_U1.min_timer_min_on_N16772328)    1.0000                                     

(X_U1.X_CS_AMP_U1912603712.Qqqd1)    0.0000                                     

(X_U1.X_CS_AMP_U1912603719.Qqqd1)    0.0000                                     

(X_U1.X_current_limit_U643.Qqqd1)    0.0000                                     

(X_U1.X_current_limit_U652.MYVSS)    0.0000                                     

(X_U1.X_current_limit_U652.Qqqd1)    0.0000                                     

(X_U1.X_current_limit_U827.YINT1)    1.0000                                     

(X_U1.X_current_limit_U827.YINT2)    1.0000                                     

(X_U1.X_current_limit_U827.YINT3)    0.0000                                     

(X_U1.X_Drivers_U1912603652.YINT)    0.0000                                     

(X_U1.X_Drivers_U1912603654.YINT)    0.0000                                     

(X_U1.X_Drivers_U1912603659.YINT)    0.0000                                     

(X_U1.X_Drivers_U1912603660.YINT)    1.0000                                     

(X_U1.X_Drivers_U1912603661.YINT)    0.0000                                     

(X_U1.X_Drivers_U1912603662.YINT)    0.0000                                     

(X_U1.X_Drivers_U1912603663.YINT)    0.0000                                     

(X_U1.X_Drivers_U1912603665.YINT)    0.0000                                     

(X_U1.X_Drivers_U1912603667.YINT)    0.0000                                     

(X_U1.X_Drivers_U1912603669.YINT)    0.0000                                     

(X_U1.X_Drivers_U1912603670.YINT)    0.0000                                     

(X_U1.X_Drivers_U1912603672.YINT)    0.0000                                     

(X_U1.X_Drivers_U1912603674.YINT)    0.0000                                     

(X_U1.X_Drivers_U1912603675.YINT)    1.0000                                     

(X_U1.X_Drivers_U1912603677.YINT)    0.0000                                     

(X_U1.X_Drivers_U1912603705.INM1)    2.8600                                     

(X_U1.X_Drivers_U1912603705.INP1)    0.0000                                     

(X_U1.X_Drivers_U1912603705.INP2)    0.0000                                     

(X_U1.X_Drivers_U1912603706.YINT)    1.0000                                     

(X_U1.X_Drivers_U1912603707.INM1)    2.8600                                     

(X_U1.X_Drivers_U1912603707.INP1)    0.0000                                     

(X_U1.X_Drivers_U1912603707.INP2)    0.0000                                     

(X_U1.X_Drivers_U1912603708.YINT)    1.0000                                     

(X_U1.X_Drivers_U1912603709.YINT)    0.0000                                     

(X_U1.X_Drivers_U1912603713.YINT)    0.0000                                     

(X_U1.CS_AMP_EN_UVLO_REFRESH_BUCK)    0.0000                                    

(X_U1.current_limit_ILIMIT_DETECT)    0.0000                                    

(X_U1.min_timer_min_on_INDELAYED1) 23.28E-30                                    

(X_U1.X_CS_AMP_U1912603712.CLKdel)    1.0000                                    

(X_U1.X_CS_AMP_U1912603712.CLKint)    0.0000                                    

(X_U1.X_CS_AMP_U1912603719.CLKdel)    1.0000                                    

(X_U1.X_CS_AMP_U1912603719.CLKint)    0.0000                                    

(X_U1.X_current_limit_U643.CLKdel)    1.0000                                    

(X_U1.X_current_limit_U643.CLKint)    0.0000                                    

(X_U1.X_Drivers_U1912603678.YINT1)    0.0000                                    

(X_U1.X_Drivers_U1912603678.YINT2)    0.0000                                    

(X_U1.X_Drivers_U1912603678.YINT3)    1.0000                                    

(X_U1.X_Drivers_U1912603679.YINT1)    0.0000                                    

(X_U1.X_Drivers_U1912603679.YINT2)    0.0000                                    

(X_U1.X_Drivers_U1912603679.YINT3)    1.0000                                    

(X_U1.X_Drivers_U1912603680.YINT1)    0.0000                                    

(X_U1.X_Drivers_U1912603680.YINT2)    0.0000                                    

(X_U1.X_Drivers_U1912603680.YINT3)    1.0000                                    

(X_U1.X_Drivers_U1912603681.YINT1)    0.0000                                    

(X_U1.X_Drivers_U1912603681.YINT2)    0.0000                                    

(X_U1.X_Drivers_U1912603681.YINT3)    1.0000                                    

(X_U1.X_min_timer_U1912603729.MY5)    5.0000                                    

(X_U1.X_min_timer_U1912603729.Qbr)    1.0000                                    

(X_U1.X_min_timer_U1912603729.Qqq)    -.0935                                    

(X_U1.CS_AMP_EN_UVLO_REFRESH_BOOST)    0.0000                                   

(X_U1.X_CS_AMP_U1912603712.X2.YINT)    0.0000                                   

(X_U1.X_CS_AMP_U1912603719.X2.YINT)    0.0000                                   

(X_U1.X_current_limit_U643.X2.YINT)    0.0000                                   

(X_U1.X_current_limit_U652.X3.YINT)    0.0000                                   

(X_U1.X_min_timer_min_on_U823.YINT)    0.0000                                   

(X_U1.X_min_timer_min_on_U825.YINT)    0.0000                                   

(X_U1.X_min_timer_U1912603729.Qint)    -.0935                                   

(X_U1.X_CS_AMP_U1912603712.X1.YINT1)    0.0000                                  

(X_U1.X_CS_AMP_U1912603712.X1.YINT2)    0.0000                                  

(X_U1.X_CS_AMP_U1912603712.X1.YINT3)    1.0000                                  

(X_U1.X_CS_AMP_U1912603712.X3.YINT1)    0.0000                                  

(X_U1.X_CS_AMP_U1912603712.X3.YINT2)    0.0000                                  

(X_U1.X_CS_AMP_U1912603712.X3.YINT3)    0.0000                                  

(X_U1.X_CS_AMP_U1912603719.X1.YINT1)    0.0000                                  

(X_U1.X_CS_AMP_U1912603719.X1.YINT2)    0.0000                                  

(X_U1.X_CS_AMP_U1912603719.X1.YINT3)    1.0000                                  

(X_U1.X_CS_AMP_U1912603719.X3.YINT1)    0.0000                                  

(X_U1.X_CS_AMP_U1912603719.X3.YINT2)    0.0000                                  

(X_U1.X_CS_AMP_U1912603719.X3.YINT3)    0.0000                                  

(X_U1.X_current_limit_U643.X1.YINT1)    0.0000                                  

(X_U1.X_current_limit_U643.X1.YINT2)    0.0000                                  

(X_U1.X_current_limit_U643.X1.YINT3)    1.0000                                  

(X_U1.X_current_limit_U643.X3.YINT1)    0.0000                                  

(X_U1.X_current_limit_U643.X3.YINT2)    0.0000                                  

(X_U1.X_current_limit_U643.X3.YINT3)    0.0000                                  

(X_U1.X_min_timer_min_on_U822.YINT1)    0.0000                                  

(X_U1.X_min_timer_min_on_U822.YINT2)    0.0000                                  

(X_U1.X_min_timer_min_on_U822.YINT3)    1.0000                                  

(X_U1.X_min_timer_U1912603729.Qqqd1)    0.0000                                  

(X_U1.X_min_timer_U1912603729.CLKdel)    1.0000                                 

(X_U1.X_min_timer_U1912603729.CLKint)    0.0000                                 

(X_U1.X_min_timer_U1912603729.X2.YINT)    0.0000                                

(X_U1.X_min_timer_U1912603729.X1.YINT1)    0.0000                               

(X_U1.X_min_timer_U1912603729.X1.YINT2)    0.0000                               

(X_U1.X_min_timer_U1912603729.X1.YINT3)    1.0000                               

(X_U1.X_min_timer_U1912603729.X3.YINT1)    0.0000                               

(X_U1.X_min_timer_U1912603729.X3.YINT2)    0.0000                               

(X_U1.X_min_timer_U1912603729.X3.YINT3)    0.0000        


**** Interrupt ****

The following unused Convergence options can be added to simulation:
CSHUNT=1e-12
DIODERS=1e-4
DIODECJO=2e-12
BJTCJ=1e-11
JFETCJ=1e-12
MOSCJ=1e-12
AutoConverge

          JOB ABORTED

**** 01/10/21 14:50:15 ******* PSpice 17.4.0 (Nov 2018) ******* ID# 0 ********

 ** Profile: "SCHEMATIC1-abc"  [ C:\Users\aaa bbb\Documents\KiCadProj\SmartBattery\pSpice\Design1-PSpiceFiles\SCHEMATIC1\abc.sim ] 


 ****     JOB STATISTICS SUMMARY


******************************************************************************



  License check-out time            =     2638.00
  Total job time (using Solver 1)   =   195302.89
